/*---------------------------------------------------------------------------*\
| =========                 |                                                 |
| \\      /  F ield         | OpenFOAM: The Open Source CFD Toolbox           |
|  \\    /   O peration     | Version:  2212                                  |
|   \\  /    A nd           | Website:  www.openfoam.com                      |
|    \\/     M anipulation  |                                                 |
\*---------------------------------------------------------------------------*/
Build  : _66908158ae-20221220 OPENFOAM=2212 version=v2212
Arch   : "LSB;label=32;scalar=64"
Exec   : GeN-Foam -case steadyStateN
Date   : May 08 2023
Time   : 16:37:53
Host   : nuen-mj0jdqvh.engr.tamu.edu
PID    : 2246782
I/O    : uncollated
Case   : /home/grads/z/zhughes/GeN-Foam/Tutorials/kiwiEdited/steadyStateN
nProcs : 1
trapFpe: Floating point exception trapping enabled (FOAM_SIGFPE).
fileModificationChecking : Monitoring run-time modified files using timeStampMaster (fileModificationSkew 5, maxFileModificationPolls 20)
allowSystemOperations : Allowing user-supplied system call operations

// * * * * * * * * * * * * * * * * * * * * * * * * * * * * * * * * * * * * * //
Create time


PIMPLE: Operating solver in PISO mode

Selecting thermalHydraulicsModel of type: onePhase
Constructing powerModel of type nuclearFuelPin in region(s): 1(fuelElement)
Reading nuclearFuelPin initial temperatures from dictionary

Constructing fluid
Selecting thermodynamics package 
{
    type            heRhoThermo;
    mixture         pureMixture;
    transport       polynomial;
    thermo          hPolynomial;
    equationOfState PengRobinsonGas;
    specie          specie;
    energy          sensibleEnthalpy;
}

Calculating face flux field phi

Selecting FSDragCoefficientModel for pair fluid.structure: ReynoldsPower
Selecting FSHeatTransferCoefficientModel for pair fluid.structure: NusseltReynoldsPrandtlPower
Selecting turbulence model type RAS
Selecting RAS turbulence model porousKEpsilon
bounding k, min: 0 max: 0 average: 0
bounding epsilon, min: 0 max: 0 average: 0
RAS
{
    RASModel        porousKEpsilon;
    turbulence      on;
    printCoeffs     on;
    Cmu             0.09;
    C1              1.44;
    C2              1.92;
    C3              0;
    sigmak          1;
    sigmaEps        1.3;
}

Setting porousKEpsilon parameters for region: fuelElement
Setting porousKEpsilon parameters for region: centralUnloadedFuelElement


Selecting neutronics model type SP3Neutronics
Initial keff = 1

Reading nuclear data

name: fuelElement
Reading nominal 
Finishing reading nominal 
name: centralUnloadedFuelElement
Reading nominal 
Finishing reading nominal 
Finished reading nuclear data 
Creating nuclear data fields

Mesh zone: fuelElement
Mesh zone: centralUnloadedFuelElement
Mesh zone: fuelElement
Mesh zone: centralUnloadedFuelElement
Selecting thermoMechanics model type linearElasticThermoMechanics
Plane Strain

Normalising k : k/rho

Calculating thermal coefficients

Creating mesh-to-mesh addressing for thermoMechanicalRegion and neutroRegion regions using cellVolumeWeight
    Overlap volume: 1e-09
Creating mesh-to-mesh addressing for thermoMechanicalRegion and fluidRegion regions using cellVolumeWeight
    Overlap volume: 1e-09
Creating mesh-to-mesh addressing for neutroRegion and fluidRegion regions using cellVolumeWeight
    Overlap volume: 0.00293681
Creating mesh-to-mesh addressing for fluidRegion and neutroRegion regions using cellVolumeWeight
    Overlap volume: 0.00293681

Starting time loop - 

ExecutionTime = 0.13 s

surfaceFieldValue vInletCentralUnloaded:
    operation     = areaAverage


surfaceFieldValue vOutletCentralUnloaded:
    operation     = areaAverage


surfaceFieldValue vInletFuelElement:
    operation     = areaAverage


surfaceFieldValue vOutletFuelElement:
    operation     = areaAverage


limitFields limitFieldsDeltaT:
    Imposing lower limit 0

initialDeltaT = 1e-06
Time = 1e-06

Coupling iteration 0
diagonal:  Solving for prec0, Initial residual = 0, Final residual = 0, No Iterations 0
diagonal:  Solving for prec1, Initial residual = 0, Final residual = 0, No Iterations 0
diagonal:  Solving for prec2, Initial residual = 0, Final residual = 0, No Iterations 0
diagonal:  Solving for prec3, Initial residual = 0, Final residual = 0, No Iterations 0
diagonal:  Solving for prec4, Initial residual = 0, Final residual = 0, No Iterations 0
diagonal:  Solving for prec5, Initial residual = 0, Final residual = 0, No Iterations 0
Neutron iteration no:  0

DICPCG:  Solving for fluxStar0, Initial residual = 1, Final residual = 0.000702934, No Iterations 25
neutro Residual = 1

DICPCG:  Solving for fluxStar0, Initial residual = 0.000307183, Final residual = 7.09763e-07, No Iterations 13
DICPCG:  Solving for fluxStar20, Initial residual = 1, Final residual = 0.000413226, No Iterations 5
DICPCG:  Solving for fluxStar20, Initial residual = 0.00361936, Final residual = 1.28725e-06, No Iterations 5
DICPCG:  Solving for fluxStar1, Initial residual = 1, Final residual = 0.00063555, No Iterations 8
neutro Residual = 1

DICPCG:  Solving for fluxStar1, Initial residual = 0.000510538, Final residual = 9.29992e-07, No Iterations 8
DICPCG:  Solving for fluxStar21, Initial residual = 1, Final residual = 0.000504667, No Iterations 3
DICPCG:  Solving for fluxStar21, Initial residual = 0.0144806, Final residual = 8.88018e-06, No Iterations 3
diagonal:  Solving for prec0, Initial residual = 0, Final residual = 0, No Iterations 0
diagonal:  Solving for prec1, Initial residual = 0, Final residual = 0, No Iterations 0
diagonal:  Solving for prec2, Initial residual = 0, Final residual = 0, No Iterations 0
diagonal:  Solving for prec3, Initial residual = 0, Final residual = 0, No Iterations 0
diagonal:  Solving for prec4, Initial residual = 0, Final residual = 0, No Iterations 0
diagonal:  Solving for prec5, Initial residual = 0, Final residual = 0, No Iterations 0
neutroResidual (couplingIter: 0,neutroIter: 1): 1 after Aitken no: 0
Final neutroResidual at coupling/neutroIter iter no 0/1: 1 - pow:-2.29195e+06
pTarget_ = 3.748e+06

keff_ previous = 1

keff_ = 0.1


Writing output files

ExecutionTime = 0.16 s  ClockTime = 0 s

deltaT = 2.6102e-27
Time = 2e-06

Coupling iteration 0
diagonal:  Solving for prec0, Initial residual = 0, Final residual = 0, No Iterations 0
diagonal:  Solving for prec1, Initial residual = 0, Final residual = 0, No Iterations 0
diagonal:  Solving for prec2, Initial residual = 0, Final residual = 0, No Iterations 0
diagonal:  Solving for prec3, Initial residual = 0, Final residual = 0, No Iterations 0
diagonal:  Solving for prec4, Initial residual = 0, Final residual = 0, No Iterations 0
diagonal:  Solving for prec5, Initial residual = 0, Final residual = 0, No Iterations 0
Neutron iteration no:  0

DICPCG:  Solving for fluxStar0, Initial residual = 0.788436, Final residual = 0.00033635, No Iterations 25
neutro Residual = 0.788436

DICPCG:  Solving for fluxStar0, Initial residual = 0.000201949, Final residual = 7.43552e-07, No Iterations 9
DICPCG:  Solving for fluxStar20, Initial residual = 1, Final residual = 0.000551303, No Iterations 5
DICPCG:  Solving for fluxStar20, Initial residual = 0.000375836, Final residual = 4.48894e-07, No Iterations 4
DICPCG:  Solving for fluxStar1, Initial residual = 0.829573, Final residual = 0.000667544, No Iterations 8
neutro Residual = 0.829573

DICPCG:  Solving for fluxStar1, Initial residual = 0.000446415, Final residual = 5.45501e-07, No Iterations 8
DICPCG:  Solving for fluxStar21, Initial residual = 0.834842, Final residual = 0.000643154, No Iterations 3
DICPCG:  Solving for fluxStar21, Initial residual = 0.000406382, Final residual = 2.05039e-07, No Iterations 3
diagonal:  Solving for prec0, Initial residual = 0, Final residual = 0, No Iterations 0
diagonal:  Solving for prec1, Initial residual = 0, Final residual = 0, No Iterations 0
diagonal:  Solving for prec2, Initial residual = 0, Final residual = 0, No Iterations 0
diagonal:  Solving for prec3, Initial residual = 0, Final residual = 0, No Iterations 0
diagonal:  Solving for prec4, Initial residual = 0, Final residual = 0, No Iterations 0
diagonal:  Solving for prec5, Initial residual = 0, Final residual = 0, No Iterations 0
neutroResidual (couplingIter: 0,neutroIter: 1): 1 after Aitken no: 0
Final neutroResidual at coupling/neutroIter iter no 0/1: 1 - pow:3.74422e+07
pTarget_ = 3.748e+06

keff_ previous = 0.1

keff_ = 0.998991


Writing output files

ExecutionTime = 0.16 s  ClockTime = 0 s

deltaT = 3.13224e-27
Time = 2e-06

Coupling iteration 0
diagonal:  Solving for prec0, Initial residual = 0, Final residual = 0, No Iterations 0
diagonal:  Solving for prec1, Initial residual = 0, Final residual = 0, No Iterations 0
diagonal:  Solving for prec2, Initial residual = 0, Final residual = 0, No Iterations 0
diagonal:  Solving for prec3, Initial residual = 0, Final residual = 0, No Iterations 0
diagonal:  Solving for prec4, Initial residual = 0, Final residual = 0, No Iterations 0
diagonal:  Solving for prec5, Initial residual = 0, Final residual = 0, No Iterations 0
Neutron iteration no:  0

DICPCG:  Solving for fluxStar0, Initial residual = 0.162569, Final residual = 0.000138952, No Iterations 25
neutro Residual = 0.162569

DICPCG:  Solving for fluxStar0, Initial residual = 0.00012384, Final residual = 8.51042e-07, No Iterations 8
DICPCG:  Solving for fluxStar20, Initial residual = 0.323567, Final residual = 0.000159442, No Iterations 5
DICPCG:  Solving for fluxStar20, Initial residual = 0.000184585, Final residual = 3.2587e-07, No Iterations 4
DICPCG:  Solving for fluxStar1, Initial residual = 0.234471, Final residual = 0.00017959, No Iterations 8
neutro Residual = 0.234471

DICPCG:  Solving for fluxStar1, Initial residual = 0.000163442, Final residual = 8.28783e-07, No Iterations 7
DICPCG:  Solving for fluxStar21, Initial residual = 0.109691, Final residual = 7.71941e-05, No Iterations 3
DICPCG:  Solving for fluxStar21, Initial residual = 7.21294e-05, Final residual = 8.4853e-07, No Iterations 2
diagonal:  Solving for prec0, Initial residual = 0, Final residual = 0, No Iterations 0
diagonal:  Solving for prec1, Initial residual = 0, Final residual = 0, No Iterations 0
diagonal:  Solving for prec2, Initial residual = 0, Final residual = 0, No Iterations 0
diagonal:  Solving for prec3, Initial residual = 0, Final residual = 0, No Iterations 0
diagonal:  Solving for prec4, Initial residual = 0, Final residual = 0, No Iterations 0
diagonal:  Solving for prec5, Initial residual = 0, Final residual = 0, No Iterations 0
neutroResidual (couplingIter: 0,neutroIter: 1): 0.323567 after Aitken no: 0
Final neutroResidual at coupling/neutroIter iter no 0/1: 0.323567 - pow:4.42565e+06
pTarget_ = 3.748e+06

keff_ previous = 0.998991

keff_ = 1.17961


Writing output files

ExecutionTime = 0.16 s  ClockTime = 0 s

deltaT = 3.75868e-27
Time = 2e-06

Coupling iteration 0
diagonal:  Solving for prec0, Initial residual = 0, Final residual = 0, No Iterations 0
diagonal:  Solving for prec1, Initial residual = 0, Final residual = 0, No Iterations 0
diagonal:  Solving for prec2, Initial residual = 0, Final residual = 0, No Iterations 0
diagonal:  Solving for prec3, Initial residual = 0, Final residual = 0, No Iterations 0
diagonal:  Solving for prec4, Initial residual = 0, Final residual = 0, No Iterations 0
diagonal:  Solving for prec5, Initial residual = 0, Final residual = 0, No Iterations 0
Neutron iteration no:  0

DICPCG:  Solving for fluxStar0, Initial residual = 0.0580069, Final residual = 3.77328e-05, No Iterations 24
neutro Residual = 0.0580069

DICPCG:  Solving for fluxStar0, Initial residual = 3.60131e-05, Final residual = 3.94156e-07, No Iterations 6
DICPCG:  Solving for fluxStar20, Initial residual = 0.151531, Final residual = 7.90295e-05, No Iterations 5
DICPCG:  Solving for fluxStar20, Initial residual = 7.66257e-05, Final residual = 9.69566e-08, No Iterations 4
DICPCG:  Solving for fluxStar1, Initial residual = 0.0940729, Final residual = 8.80169e-05, No Iterations 8
neutro Residual = 0.0940729

DICPCG:  Solving for fluxStar1, Initial residual = 8.14214e-05, Final residual = 8.74816e-07, No Iterations 5
DICPCG:  Solving for fluxStar21, Initial residual = 0.0475207, Final residual = 2.16767e-05, No Iterations 3
DICPCG:  Solving for fluxStar21, Initial residual = 2.12122e-05, Final residual = 2.84597e-07, No Iterations 2
diagonal:  Solving for prec0, Initial residual = 0, Final residual = 0, No Iterations 0
diagonal:  Solving for prec1, Initial residual = 0, Final residual = 0, No Iterations 0
diagonal:  Solving for prec2, Initial residual = 0, Final residual = 0, No Iterations 0
diagonal:  Solving for prec3, Initial residual = 0, Final residual = 0, No Iterations 0
diagonal:  Solving for prec4, Initial residual = 0, Final residual = 0, No Iterations 0
diagonal:  Solving for prec5, Initial residual = 0, Final residual = 0, No Iterations 0
neutroResidual (couplingIter: 0,neutroIter: 1): 0.151531 after Aitken no: 0
Final neutroResidual at coupling/neutroIter iter no 0/1: 0.151531 - pow:3.94489e+06
pTarget_ = 3.748e+06

keff_ previous = 1.17961

keff_ = 1.24158


Writing output files

ExecutionTime = 0.16 s  ClockTime = 0 s

deltaT = 4.51042e-27
Time = 2e-06

Coupling iteration 0
diagonal:  Solving for prec0, Initial residual = 0, Final residual = 0, No Iterations 0
diagonal:  Solving for prec1, Initial residual = 0, Final residual = 0, No Iterations 0
diagonal:  Solving for prec2, Initial residual = 0, Final residual = 0, No Iterations 0
diagonal:  Solving for prec3, Initial residual = 0, Final residual = 0, No Iterations 0
diagonal:  Solving for prec4, Initial residual = 0, Final residual = 0, No Iterations 0
diagonal:  Solving for prec5, Initial residual = 0, Final residual = 0, No Iterations 0
Neutron iteration no:  0

DICPCG:  Solving for fluxStar0, Initial residual = 0.0287052, Final residual = 1.89776e-05, No Iterations 21
neutro Residual = 0.0287052

DICPCG:  Solving for fluxStar0, Initial residual = 1.85432e-05, Final residual = 9.55628e-07, No Iterations 5
DICPCG:  Solving for fluxStar20, Initial residual = 0.0763747, Final residual = 2.59601e-05, No Iterations 5
DICPCG:  Solving for fluxStar20, Initial residual = 2.57006e-05, Final residual = 9.87875e-07, No Iterations 2
DICPCG:  Solving for fluxStar1, Initial residual = 0.0458283, Final residual = 2.87693e-05, No Iterations 7
neutro Residual = 0.0458283

DICPCG:  Solving for fluxStar1, Initial residual = 2.76983e-05, Final residual = 5.95111e-07, No Iterations 5
DICPCG:  Solving for fluxStar21, Initial residual = 0.0247879, Final residual = 1.2555e-05, No Iterations 3
DICPCG:  Solving for fluxStar21, Initial residual = 1.24414e-05, Final residual = 1.64401e-07, No Iterations 2
diagonal:  Solving for prec0, Initial residual = 0, Final residual = 0, No Iterations 0
diagonal:  Solving for prec1, Initial residual = 0, Final residual = 0, No Iterations 0
diagonal:  Solving for prec2, Initial residual = 0, Final residual = 0, No Iterations 0
diagonal:  Solving for prec3, Initial residual = 0, Final residual = 0, No Iterations 0
diagonal:  Solving for prec4, Initial residual = 0, Final residual = 0, No Iterations 0
diagonal:  Solving for prec5, Initial residual = 0, Final residual = 0, No Iterations 0
neutroResidual (couplingIter: 0,neutroIter: 1): 0.0763747 after Aitken no: 0
Final neutroResidual at coupling/neutroIter iter no 0/1: 0.0763747 - pow:3.82745e+06
pTarget_ = 3.748e+06

keff_ previous = 1.24158

keff_ = 1.2679


Writing output files

ExecutionTime = 0.16 s  ClockTime = 0 s

deltaT = 5.4125e-27
Time = 2e-06

Coupling iteration 0
diagonal:  Solving for prec0, Initial residual = 0, Final residual = 0, No Iterations 0
diagonal:  Solving for prec1, Initial residual = 0, Final residual = 0, No Iterations 0
diagonal:  Solving for prec2, Initial residual = 0, Final residual = 0, No Iterations 0
diagonal:  Solving for prec3, Initial residual = 0, Final residual = 0, No Iterations 0
diagonal:  Solving for prec4, Initial residual = 0, Final residual = 0, No Iterations 0
diagonal:  Solving for prec5, Initial residual = 0, Final residual = 0, No Iterations 0
Neutron iteration no:  0

DICPCG:  Solving for fluxStar0, Initial residual = 0.0154656, Final residual = 3.97713e-06, No Iterations 21
neutro Residual = 0.0154656

DICPCG:  Solving for fluxStar0, Initial residual = 3.9282e-06, Final residual = 6.1915e-07, No Iterations 3
DICPCG:  Solving for fluxStar20, Initial residual = 0.0417351, Final residual = 3.9648e-05, No Iterations 4
DICPCG:  Solving for fluxStar20, Initial residual = 3.943e-05, Final residual = 7.52741e-07, No Iterations 3
DICPCG:  Solving for fluxStar1, Initial residual = 0.023863, Final residual = 1.10627e-05, No Iterations 7
neutro Residual = 0.023863

DICPCG:  Solving for fluxStar1, Initial residual = 1.08404e-05, Final residual = 4.70818e-07, No Iterations 4
DICPCG:  Solving for fluxStar21, Initial residual = 0.0134657, Final residual = 6.72114e-06, No Iterations 3
DICPCG:  Solving for fluxStar21, Initial residual = 6.69169e-06, Final residual = 7.73648e-07, No Iterations 1
diagonal:  Solving for prec0, Initial residual = 0, Final residual = 0, No Iterations 0
diagonal:  Solving for prec1, Initial residual = 0, Final residual = 0, No Iterations 0
diagonal:  Solving for prec2, Initial residual = 0, Final residual = 0, No Iterations 0
diagonal:  Solving for prec3, Initial residual = 0, Final residual = 0, No Iterations 0
diagonal:  Solving for prec4, Initial residual = 0, Final residual = 0, No Iterations 0
diagonal:  Solving for prec5, Initial residual = 0, Final residual = 0, No Iterations 0
neutroResidual (couplingIter: 0,neutroIter: 1): 0.0417351 after Aitken no: 0
Final neutroResidual at coupling/neutroIter iter no 0/1: 0.0417351 - pow:3.78537e+06
pTarget_ = 3.748e+06

keff_ previous = 1.2679

keff_ = 1.28054


Writing output files

ExecutionTime = 0.16 s  ClockTime = 0 s

deltaT = 6.49501e-27
Time = 2e-06

Coupling iteration 0
diagonal:  Solving for prec0, Initial residual = 0, Final residual = 0, No Iterations 0
diagonal:  Solving for prec1, Initial residual = 0, Final residual = 0, No Iterations 0
diagonal:  Solving for prec2, Initial residual = 0, Final residual = 0, No Iterations 0
diagonal:  Solving for prec3, Initial residual = 0, Final residual = 0, No Iterations 0
diagonal:  Solving for prec4, Initial residual = 0, Final residual = 0, No Iterations 0
diagonal:  Solving for prec5, Initial residual = 0, Final residual = 0, No Iterations 0
Neutron iteration no:  0

DICPCG:  Solving for fluxStar0, Initial residual = 0.00845212, Final residual = 6.05588e-06, No Iterations 19
neutro Residual = 0.00845212

DICPCG:  Solving for fluxStar0, Initial residual = 6.01486e-06, Final residual = 7.82473e-07, No Iterations 3
DICPCG:  Solving for fluxStar20, Initial residual = 0.0233545, Final residual = 2.00635e-05, No Iterations 4
DICPCG:  Solving for fluxStar20, Initial residual = 2.00024e-05, Final residual = 8.99569e-07, No Iterations 2
DICPCG:  Solving for fluxStar1, Initial residual = 0.0129798, Final residual = 4.97197e-06, No Iterations 7
neutro Residual = 0.0129798

DICPCG:  Solving for fluxStar1, Initial residual = 4.9186e-06, Final residual = 8.53121e-07, No Iterations 2
DICPCG:  Solving for fluxStar21, Initial residual = 0.00744214, Final residual = 3.63333e-06, No Iterations 3
DICPCG:  Solving for fluxStar21, Initial residual = 3.62505e-06, Final residual = 4.30173e-07, No Iterations 1
diagonal:  Solving for prec0, Initial residual = 0, Final residual = 0, No Iterations 0
diagonal:  Solving for prec1, Initial residual = 0, Final residual = 0, No Iterations 0
diagonal:  Solving for prec2, Initial residual = 0, Final residual = 0, No Iterations 0
diagonal:  Solving for prec3, Initial residual = 0, Final residual = 0, No Iterations 0
diagonal:  Solving for prec4, Initial residual = 0, Final residual = 0, No Iterations 0
diagonal:  Solving for prec5, Initial residual = 0, Final residual = 0, No Iterations 0
neutroResidual (couplingIter: 0,neutroIter: 1): 0.0233545 after Aitken no: 0
Final neutroResidual at coupling/neutroIter iter no 0/1: 0.0233545 - pow:3.7671e+06
pTarget_ = 3.748e+06

keff_ previous = 1.28054

keff_ = 1.28706


Writing output files

ExecutionTime = 0.17 s  ClockTime = 0 s

deltaT = 7.79401e-27
Time = 2e-06

Coupling iteration 0
diagonal:  Solving for prec0, Initial residual = 0, Final residual = 0, No Iterations 0
diagonal:  Solving for prec1, Initial residual = 0, Final residual = 0, No Iterations 0
diagonal:  Solving for prec2, Initial residual = 0, Final residual = 0, No Iterations 0
diagonal:  Solving for prec3, Initial residual = 0, Final residual = 0, No Iterations 0
diagonal:  Solving for prec4, Initial residual = 0, Final residual = 0, No Iterations 0
diagonal:  Solving for prec5, Initial residual = 0, Final residual = 0, No Iterations 0
Neutron iteration no:  0

DICPCG:  Solving for fluxStar0, Initial residual = 0.00465101, Final residual = 2.06859e-06, No Iterations 19
neutro Residual = 0.00465101

DICPCG:  Solving for fluxStar0, Initial residual = 2.06032e-06, Final residual = 5.20237e-07, No Iterations 3
DICPCG:  Solving for fluxStar20, Initial residual = 0.0130666, Final residual = 1.08912e-05, No Iterations 4
DICPCG:  Solving for fluxStar20, Initial residual = 1.08726e-05, Final residual = 3.90556e-07, No Iterations 2
DICPCG:  Solving for fluxStar1, Initial residual = 0.00713037, Final residual = 2.49813e-06, No Iterations 7
neutro Residual = 0.00713037

DICPCG:  Solving for fluxStar1, Initial residual = 2.48334e-06, Final residual = 3.8837e-07, No Iterations 2
DICPCG:  Solving for fluxStar21, Initial residual = 0.00412982, Final residual = 1.99338e-06, No Iterations 3
DICPCG:  Solving for fluxStar21, Initial residual = 1.99093e-06, Final residual = 2.39486e-07, No Iterations 1
diagonal:  Solving for prec0, Initial residual = 0, Final residual = 0, No Iterations 0
diagonal:  Solving for prec1, Initial residual = 0, Final residual = 0, No Iterations 0
diagonal:  Solving for prec2, Initial residual = 0, Final residual = 0, No Iterations 0
diagonal:  Solving for prec3, Initial residual = 0, Final residual = 0, No Iterations 0
diagonal:  Solving for prec4, Initial residual = 0, Final residual = 0, No Iterations 0
diagonal:  Solving for prec5, Initial residual = 0, Final residual = 0, No Iterations 0
neutroResidual (couplingIter: 0,neutroIter: 1): 0.0130666 after Aitken no: 0
Final neutroResidual at coupling/neutroIter iter no 0/1: 0.0130666 - pow:3.75818e+06
pTarget_ = 3.748e+06

keff_ previous = 1.28706

keff_ = 1.29056


Writing output files

ExecutionTime = 0.17 s  ClockTime = 0 s

deltaT = 9.35281e-27
Time = 2e-06

Coupling iteration 0
diagonal:  Solving for prec0, Initial residual = 0, Final residual = 0, No Iterations 0
diagonal:  Solving for prec1, Initial residual = 0, Final residual = 0, No Iterations 0
diagonal:  Solving for prec2, Initial residual = 0, Final residual = 0, No Iterations 0
diagonal:  Solving for prec3, Initial residual = 0, Final residual = 0, No Iterations 0
diagonal:  Solving for prec4, Initial residual = 0, Final residual = 0, No Iterations 0
diagonal:  Solving for prec5, Initial residual = 0, Final residual = 0, No Iterations 0
Neutron iteration no:  0

DICPCG:  Solving for fluxStar0, Initial residual = 0.00256975, Final residual = 2.07684e-06, No Iterations 17
neutro Residual = 0.00256975

DICPCG:  Solving for fluxStar0, Initial residual = 2.07231e-06, Final residual = 6.23266e-07, No Iterations 3
DICPCG:  Solving for fluxStar20, Initial residual = 0.00728437, Final residual = 6.02711e-06, No Iterations 4
DICPCG:  Solving for fluxStar20, Initial residual = 6.02124e-06, Final residual = 8.81699e-07, No Iterations 1
DICPCG:  Solving for fluxStar1, Initial residual = 0.00393649, Final residual = 1.34249e-06, No Iterations 7
neutro Residual = 0.00393649

DICPCG:  Solving for fluxStar1, Initial residual = 1.33797e-06, Final residual = 6.8265e-07, No Iterations 1
DICPCG:  Solving for fluxStar21, Initial residual = 0.00229475, Final residual = 1.10152e-06, No Iterations 3
DICPCG:  Solving for fluxStar21, Initial residual = 1.10078e-06, Final residual = 1.33266e-07, No Iterations 1
diagonal:  Solving for prec0, Initial residual = 0, Final residual = 0, No Iterations 0
diagonal:  Solving for prec1, Initial residual = 0, Final residual = 0, No Iterations 0
diagonal:  Solving for prec2, Initial residual = 0, Final residual = 0, No Iterations 0
diagonal:  Solving for prec3, Initial residual = 0, Final residual = 0, No Iterations 0
diagonal:  Solving for prec4, Initial residual = 0, Final residual = 0, No Iterations 0
diagonal:  Solving for prec5, Initial residual = 0, Final residual = 0, No Iterations 0
neutroResidual (couplingIter: 0,neutroIter: 1): 0.00728437 after Aitken no: 0
Final neutroResidual at coupling/neutroIter iter no 0/1: 0.00728437 - pow:3.75354e+06
pTarget_ = 3.748e+06

keff_ previous = 1.29056

keff_ = 1.29247


Writing output files

ExecutionTime = 0.17 s  ClockTime = 0 s

deltaT = 1.12234e-26
Time = 2e-06

Coupling iteration 0
diagonal:  Solving for prec0, Initial residual = 0, Final residual = 0, No Iterations 0
diagonal:  Solving for prec1, Initial residual = 0, Final residual = 0, No Iterations 0
diagonal:  Solving for prec2, Initial residual = 0, Final residual = 0, No Iterations 0
diagonal:  Solving for prec3, Initial residual = 0, Final residual = 0, No Iterations 0
diagonal:  Solving for prec4, Initial residual = 0, Final residual = 0, No Iterations 0
diagonal:  Solving for prec5, Initial residual = 0, Final residual = 0, No Iterations 0
Neutron iteration no:  0

DICPCG:  Solving for fluxStar0, Initial residual = 0.00142393, Final residual = 1.11516e-06, No Iterations 17
neutro Residual = 0.00142393

DICPCG:  Solving for fluxStar0, Initial residual = 1.11382e-06, Final residual = 8.95639e-07, No Iterations 1
DICPCG:  Solving for fluxStar20, Initial residual = 0.0040534, Final residual = 3.34018e-06, No Iterations 4
DICPCG:  Solving for fluxStar20, Initial residual = 3.33814e-06, Final residual = 4.88258e-07, No Iterations 1
DICPCG:  Solving for fluxStar1, Initial residual = 0.00217874, Final residual = 7.44537e-07, No Iterations 7
neutro Residual = 0.00217874

DICPCG:  Solving for fluxStar1, Initial residual = 7.43154e-07, Final residual = 7.43154e-07, No Iterations 0
DICPCG:  Solving for fluxStar21, Initial residual = 0.00127489, Final residual = 6.10375e-07, No Iterations 3
DICPCG:  Solving for fluxStar21, Initial residual = 6.1015e-07, Final residual = 6.1015e-07, No Iterations 0
diagonal:  Solving for prec0, Initial residual = 0, Final residual = 0, No Iterations 0
diagonal:  Solving for prec1, Initial residual = 0, Final residual = 0, No Iterations 0
diagonal:  Solving for prec2, Initial residual = 0, Final residual = 0, No Iterations 0
diagonal:  Solving for prec3, Initial residual = 0, Final residual = 0, No Iterations 0
diagonal:  Solving for prec4, Initial residual = 0, Final residual = 0, No Iterations 0
diagonal:  Solving for prec5, Initial residual = 0, Final residual = 0, No Iterations 0
neutroResidual (couplingIter: 0,neutroIter: 1): 0.0040534 after Aitken no: 0
Final neutroResidual at coupling/neutroIter iter no 0/1: 0.0040534 - pow:3.75105e+06
pTarget_ = 3.748e+06

keff_ previous = 1.29247

keff_ = 1.29352


Writing output files

ExecutionTime = 0.17 s  ClockTime = 0 s

deltaT = 1.3468e-26
Time = 2e-06

Coupling iteration 0
diagonal:  Solving for prec0, Initial residual = 0, Final residual = 0, No Iterations 0
diagonal:  Solving for prec1, Initial residual = 0, Final residual = 0, No Iterations 0
diagonal:  Solving for prec2, Initial residual = 0, Final residual = 0, No Iterations 0
diagonal:  Solving for prec3, Initial residual = 0, Final residual = 0, No Iterations 0
diagonal:  Solving for prec4, Initial residual = 0, Final residual = 0, No Iterations 0
diagonal:  Solving for prec5, Initial residual = 0, Final residual = 0, No Iterations 0
Neutron iteration no:  0

DICPCG:  Solving for fluxStar0, Initial residual = 0.000790544, Final residual = 5.16621e-07, No Iterations 17
neutro Residual = 0.000790544

DICPCG:  Solving for fluxStar0, Initial residual = 5.16279e-07, Final residual = 5.16279e-07, No Iterations 0
DICPCG:  Solving for fluxStar20, Initial residual = 0.0022529, Final residual = 1.85515e-06, No Iterations 4
DICPCG:  Solving for fluxStar20, Initial residual = 1.8545e-06, Final residual = 2.72061e-07, No Iterations 1
DICPCG:  Solving for fluxStar1, Initial residual = 0.00120758, Final residual = 4.16363e-07, No Iterations 7
neutro Residual = 0.00120758

DICPCG:  Solving for fluxStar1, Initial residual = 4.15915e-07, Final residual = 4.15915e-07, No Iterations 0
DICPCG:  Solving for fluxStar21, Initial residual = 0.000708194, Final residual = 3.39256e-07, No Iterations 3
DICPCG:  Solving for fluxStar21, Initial residual = 3.39187e-07, Final residual = 3.39187e-07, No Iterations 0
diagonal:  Solving for prec0, Initial residual = 0, Final residual = 0, No Iterations 0
diagonal:  Solving for prec1, Initial residual = 0, Final residual = 0, No Iterations 0
diagonal:  Solving for prec2, Initial residual = 0, Final residual = 0, No Iterations 0
diagonal:  Solving for prec3, Initial residual = 0, Final residual = 0, No Iterations 0
diagonal:  Solving for prec4, Initial residual = 0, Final residual = 0, No Iterations 0
diagonal:  Solving for prec5, Initial residual = 0, Final residual = 0, No Iterations 0
neutroResidual (couplingIter: 0,neutroIter: 1): 0.0022529 after Aitken no: 0
Final neutroResidual at coupling/neutroIter iter no 0/1: 0.0022529 - pow:3.74968e+06
pTarget_ = 3.748e+06

keff_ previous = 1.29352

keff_ = 1.2941


Writing output files

ExecutionTime = 0.17 s  ClockTime = 0 s

deltaT = 1.61617e-26
Time = 2e-06

Coupling iteration 0
diagonal:  Solving for prec0, Initial residual = 0, Final residual = 0, No Iterations 0
diagonal:  Solving for prec1, Initial residual = 0, Final residual = 0, No Iterations 0
diagonal:  Solving for prec2, Initial residual = 0, Final residual = 0, No Iterations 0
diagonal:  Solving for prec3, Initial residual = 0, Final residual = 0, No Iterations 0
diagonal:  Solving for prec4, Initial residual = 0, Final residual = 0, No Iterations 0
diagonal:  Solving for prec5, Initial residual = 0, Final residual = 0, No Iterations 0
Neutron iteration no:  0

DICPCG:  Solving for fluxStar0, Initial residual = 0.000439013, Final residual = 6.54947e-07, No Iterations 16
neutro Residual = 0.000439013

DICPCG:  Solving for fluxStar0, Initial residual = 6.54707e-07, Final residual = 6.54707e-07, No Iterations 0
DICPCG:  Solving for fluxStar20, Initial residual = 0.00125155, Final residual = 1.03043e-06, No Iterations 4
DICPCG:  Solving for fluxStar20, Initial residual = 1.03022e-06, Final residual = 1.51618e-07, No Iterations 1
DICPCG:  Solving for fluxStar1, Initial residual = 0.000669832, Final residual = 2.31012e-07, No Iterations 7
neutro Residual = 0.000669832

DICPCG:  Solving for fluxStar1, Initial residual = 2.30874e-07, Final residual = 2.30874e-07, No Iterations 0
DICPCG:  Solving for fluxStar21, Initial residual = 0.000393303, Final residual = 1.88368e-07, No Iterations 3
DICPCG:  Solving for fluxStar21, Initial residual = 1.88347e-07, Final residual = 1.88347e-07, No Iterations 0
diagonal:  Solving for prec0, Initial residual = 0, Final residual = 0, No Iterations 0
diagonal:  Solving for prec1, Initial residual = 0, Final residual = 0, No Iterations 0
diagonal:  Solving for prec2, Initial residual = 0, Final residual = 0, No Iterations 0
diagonal:  Solving for prec3, Initial residual = 0, Final residual = 0, No Iterations 0
diagonal:  Solving for prec4, Initial residual = 0, Final residual = 0, No Iterations 0
diagonal:  Solving for prec5, Initial residual = 0, Final residual = 0, No Iterations 0
neutroResidual (couplingIter: 0,neutroIter: 1): 0.00125155 after Aitken no: 0
Final neutroResidual at coupling/neutroIter iter no 0/1: 0.00125155 - pow:3.74893e+06
pTarget_ = 3.748e+06

keff_ previous = 1.2941

keff_ = 1.29442


Writing output files

ExecutionTime = 0.17 s  ClockTime = 0 s

deltaT = 1.9394e-26
Time = 2e-06

Coupling iteration 0
diagonal:  Solving for prec0, Initial residual = 0, Final residual = 0, No Iterations 0
diagonal:  Solving for prec1, Initial residual = 0, Final residual = 0, No Iterations 0
diagonal:  Solving for prec2, Initial residual = 0, Final residual = 0, No Iterations 0
diagonal:  Solving for prec3, Initial residual = 0, Final residual = 0, No Iterations 0
diagonal:  Solving for prec4, Initial residual = 0, Final residual = 0, No Iterations 0
diagonal:  Solving for prec5, Initial residual = 0, Final residual = 0, No Iterations 0
Neutron iteration no:  0

DICPCG:  Solving for fluxStar0, Initial residual = 0.000243794, Final residual = 4.93644e-07, No Iterations 12
neutro Residual = 0.000243794

DICPCG:  Solving for fluxStar0, Initial residual = 4.93544e-07, Final residual = 4.93544e-07, No Iterations 0
DICPCG:  Solving for fluxStar20, Initial residual = 0.000695058, Final residual = 5.72406e-07, No Iterations 4
DICPCG:  Solving for fluxStar20, Initial residual = 5.72341e-07, Final residual = 5.72341e-07, No Iterations 0
DICPCG:  Solving for fluxStar1, Initial residual = 0.000371703, Final residual = 1.28622e-07, No Iterations 7
neutro Residual = 0.000371703

DICPCG:  Solving for fluxStar1, Initial residual = 1.28579e-07, Final residual = 1.28579e-07, No Iterations 0
DICPCG:  Solving for fluxStar21, Initial residual = 0.000218391, Final residual = 1.04593e-07, No Iterations 3
DICPCG:  Solving for fluxStar21, Initial residual = 1.04586e-07, Final residual = 1.04586e-07, No Iterations 0
diagonal:  Solving for prec0, Initial residual = 0, Final residual = 0, No Iterations 0
diagonal:  Solving for prec1, Initial residual = 0, Final residual = 0, No Iterations 0
diagonal:  Solving for prec2, Initial residual = 0, Final residual = 0, No Iterations 0
diagonal:  Solving for prec3, Initial residual = 0, Final residual = 0, No Iterations 0
diagonal:  Solving for prec4, Initial residual = 0, Final residual = 0, No Iterations 0
diagonal:  Solving for prec5, Initial residual = 0, Final residual = 0, No Iterations 0
neutroResidual (couplingIter: 0,neutroIter: 1): 0.000695058 after Aitken no: 0
Final neutroResidual at coupling/neutroIter iter no 0/1: 0.000695058 - pow:3.74852e+06
pTarget_ = 3.748e+06

keff_ previous = 1.29442

keff_ = 1.2946


Writing output files

ExecutionTime = 0.17 s  ClockTime = 0 s

deltaT = 2.32728e-26
Time = 2e-06

Coupling iteration 0
diagonal:  Solving for prec0, Initial residual = 0, Final residual = 0, No Iterations 0
diagonal:  Solving for prec1, Initial residual = 0, Final residual = 0, No Iterations 0
diagonal:  Solving for prec2, Initial residual = 0, Final residual = 0, No Iterations 0
diagonal:  Solving for prec3, Initial residual = 0, Final residual = 0, No Iterations 0
diagonal:  Solving for prec4, Initial residual = 0, Final residual = 0, No Iterations 0
diagonal:  Solving for prec5, Initial residual = 0, Final residual = 0, No Iterations 0
Neutron iteration no:  0

DICPCG:  Solving for fluxStar0, Initial residual = 0.000135327, Final residual = 5.12616e-07, No Iterations 12
neutro Residual = 0.000135327

DICPCG:  Solving for fluxStar0, Initial residual = 5.12558e-07, Final residual = 5.12558e-07, No Iterations 0
DICPCG:  Solving for fluxStar20, Initial residual = 0.00038602, Final residual = 3.16697e-07, No Iterations 4
DICPCG:  Solving for fluxStar20, Initial residual = 3.16678e-07, Final residual = 3.16678e-07, No Iterations 0
DICPCG:  Solving for fluxStar1, Initial residual = 0.000206313, Final residual = 7.1559e-08, No Iterations 7
neutro Residual = 0.000206313

DICPCG:  Solving for fluxStar1, Initial residual = 7.15458e-08, Final residual = 7.15458e-08, No Iterations 0
DICPCG:  Solving for fluxStar21, Initial residual = 0.000121274, Final residual = 5.75693e-07, No Iterations 2
DICPCG:  Solving for fluxStar21, Initial residual = 5.75673e-07, Final residual = 5.75673e-07, No Iterations 0
diagonal:  Solving for prec0, Initial residual = 0, Final residual = 0, No Iterations 0
diagonal:  Solving for prec1, Initial residual = 0, Final residual = 0, No Iterations 0
diagonal:  Solving for prec2, Initial residual = 0, Final residual = 0, No Iterations 0
diagonal:  Solving for prec3, Initial residual = 0, Final residual = 0, No Iterations 0
diagonal:  Solving for prec4, Initial residual = 0, Final residual = 0, No Iterations 0
diagonal:  Solving for prec5, Initial residual = 0, Final residual = 0, No Iterations 0
neutroResidual (couplingIter: 0,neutroIter: 1): 0.00038602 after Aitken no: 0
Final neutroResidual at coupling/neutroIter iter no 0/1: 0.00038602 - pow:3.74829e+06
pTarget_ = 3.748e+06

keff_ previous = 1.2946

keff_ = 1.2947


Writing output files

ExecutionTime = 0.17 s  ClockTime = 0 s

deltaT = 2.79273e-26
Time = 2e-06

Coupling iteration 0
diagonal:  Solving for prec0, Initial residual = 0, Final residual = 0, No Iterations 0
diagonal:  Solving for prec1, Initial residual = 0, Final residual = 0, No Iterations 0
diagonal:  Solving for prec2, Initial residual = 0, Final residual = 0, No Iterations 0
diagonal:  Solving for prec3, Initial residual = 0, Final residual = 0, No Iterations 0
diagonal:  Solving for prec4, Initial residual = 0, Final residual = 0, No Iterations 0
diagonal:  Solving for prec5, Initial residual = 0, Final residual = 0, No Iterations 0
Neutron iteration no:  0

DICPCG:  Solving for fluxStar0, Initial residual = 7.51604e-05, Final residual = 5.50233e-07, No Iterations 12
neutro Residual = 7.51604e-05

DICPCG:  Solving for fluxStar0, Initial residual = 5.50199e-07, Final residual = 5.50199e-07, No Iterations 0
DICPCG:  Solving for fluxStar20, Initial residual = 0.000214335, Final residual = 1.76103e-07, No Iterations 4
DICPCG:  Solving for fluxStar20, Initial residual = 1.76097e-07, Final residual = 1.76097e-07, No Iterations 0
DICPCG:  Solving for fluxStar1, Initial residual = 0.000114565, Final residual = 5.91288e-07, No Iterations 6
neutro Residual = 0.000114565

DICPCG:  Solving for fluxStar1, Initial residual = 5.91227e-07, Final residual = 5.91227e-07, No Iterations 0
DICPCG:  Solving for fluxStar21, Initial residual = 6.74565e-05, Final residual = 3.26631e-07, No Iterations 2
DICPCG:  Solving for fluxStar21, Initial residual = 3.26625e-07, Final residual = 3.26625e-07, No Iterations 0
diagonal:  Solving for prec0, Initial residual = 0, Final residual = 0, No Iterations 0
diagonal:  Solving for prec1, Initial residual = 0, Final residual = 0, No Iterations 0
diagonal:  Solving for prec2, Initial residual = 0, Final residual = 0, No Iterations 0
diagonal:  Solving for prec3, Initial residual = 0, Final residual = 0, No Iterations 0
diagonal:  Solving for prec4, Initial residual = 0, Final residual = 0, No Iterations 0
diagonal:  Solving for prec5, Initial residual = 0, Final residual = 0, No Iterations 0
neutroResidual (couplingIter: 0,neutroIter: 1): 0.000214335 after Aitken no: 0
Final neutroResidual at coupling/neutroIter iter no 0/1: 0.000214335 - pow:3.74816e+06
pTarget_ = 3.748e+06

keff_ previous = 1.2947

keff_ = 1.29475


Writing output files

ExecutionTime = 0.17 s  ClockTime = 0 s

deltaT = 3.35128e-26
Time = 2e-06

Coupling iteration 0
diagonal:  Solving for prec0, Initial residual = 0, Final residual = 0, No Iterations 0
diagonal:  Solving for prec1, Initial residual = 0, Final residual = 0, No Iterations 0
diagonal:  Solving for prec2, Initial residual = 0, Final residual = 0, No Iterations 0
diagonal:  Solving for prec3, Initial residual = 0, Final residual = 0, No Iterations 0
diagonal:  Solving for prec4, Initial residual = 0, Final residual = 0, No Iterations 0
diagonal:  Solving for prec5, Initial residual = 0, Final residual = 0, No Iterations 0
Neutron iteration no:  0

DICPCG:  Solving for fluxStar0, Initial residual = 4.17426e-05, Final residual = 8.06898e-07, No Iterations 11
neutro Residual = 4.17426e-05

DICPCG:  Solving for fluxStar0, Initial residual = 8.0687e-07, Final residual = 8.0687e-07, No Iterations 0
DICPCG:  Solving for fluxStar20, Initial residual = 0.000118971, Final residual = 7.1418e-07, No Iterations 3
DICPCG:  Solving for fluxStar20, Initial residual = 7.14166e-07, Final residual = 7.14166e-07, No Iterations 0
DICPCG:  Solving for fluxStar1, Initial residual = 6.3575e-05, Final residual = 3.20897e-07, No Iterations 6
neutro Residual = 6.3575e-05

DICPCG:  Solving for fluxStar1, Initial residual = 3.20879e-07, Final residual = 3.20879e-07, No Iterations 0
DICPCG:  Solving for fluxStar21, Initial residual = 3.74696e-05, Final residual = 1.82594e-07, No Iterations 2
DICPCG:  Solving for fluxStar21, Initial residual = 1.82592e-07, Final residual = 1.82592e-07, No Iterations 0
diagonal:  Solving for prec0, Initial residual = 0, Final residual = 0, No Iterations 0
diagonal:  Solving for prec1, Initial residual = 0, Final residual = 0, No Iterations 0
diagonal:  Solving for prec2, Initial residual = 0, Final residual = 0, No Iterations 0
diagonal:  Solving for prec3, Initial residual = 0, Final residual = 0, No Iterations 0
diagonal:  Solving for prec4, Initial residual = 0, Final residual = 0, No Iterations 0
diagonal:  Solving for prec5, Initial residual = 0, Final residual = 0, No Iterations 0
neutroResidual (couplingIter: 0,neutroIter: 1): 0.000118971 after Aitken no: 0
Final neutroResidual at coupling/neutroIter iter no 0/1: 0.000118971 - pow:3.74809e+06
pTarget_ = 3.748e+06

keff_ previous = 1.29475

keff_ = 1.29478


Writing output files

ExecutionTime = 0.18 s  ClockTime = 0 s

deltaT = 4.02154e-26
Time = 2e-06

Coupling iteration 0
diagonal:  Solving for prec0, Initial residual = 0, Final residual = 0, No Iterations 0
diagonal:  Solving for prec1, Initial residual = 0, Final residual = 0, No Iterations 0
diagonal:  Solving for prec2, Initial residual = 0, Final residual = 0, No Iterations 0
diagonal:  Solving for prec3, Initial residual = 0, Final residual = 0, No Iterations 0
diagonal:  Solving for prec4, Initial residual = 0, Final residual = 0, No Iterations 0
diagonal:  Solving for prec5, Initial residual = 0, Final residual = 0, No Iterations 0
Neutron iteration no:  0

DICPCG:  Solving for fluxStar0, Initial residual = 2.31743e-05, Final residual = 8.95902e-07, No Iterations 11
neutro Residual = 2.31743e-05

DICPCG:  Solving for fluxStar0, Initial residual = 8.95885e-07, Final residual = 8.95885e-07, No Iterations 0
DICPCG:  Solving for fluxStar20, Initial residual = 6.62988e-05, Final residual = 3.72097e-07, No Iterations 3
DICPCG:  Solving for fluxStar20, Initial residual = 3.72093e-07, Final residual = 3.72093e-07, No Iterations 0
DICPCG:  Solving for fluxStar1, Initial residual = 3.53056e-05, Final residual = 7.58548e-07, No Iterations 4
neutro Residual = 3.53056e-05

DICPCG:  Solving for fluxStar1, Initial residual = 7.58524e-07, Final residual = 7.58524e-07, No Iterations 0
DICPCG:  Solving for fluxStar21, Initial residual = 2.08611e-05, Final residual = 9.51037e-07, No Iterations 1
DICPCG:  Solving for fluxStar21, Initial residual = 9.51031e-07, Final residual = 9.51031e-07, No Iterations 0
diagonal:  Solving for prec0, Initial residual = 0, Final residual = 0, No Iterations 0
diagonal:  Solving for prec1, Initial residual = 0, Final residual = 0, No Iterations 0
diagonal:  Solving for prec2, Initial residual = 0, Final residual = 0, No Iterations 0
diagonal:  Solving for prec3, Initial residual = 0, Final residual = 0, No Iterations 0
diagonal:  Solving for prec4, Initial residual = 0, Final residual = 0, No Iterations 0
diagonal:  Solving for prec5, Initial residual = 0, Final residual = 0, No Iterations 0
neutroResidual (couplingIter: 0,neutroIter: 1): 6.62988e-05 after Aitken no: 0
Final neutroResidual at coupling/neutroIter iter no 0/1: 6.62988e-05 - pow:3.74805e+06
pTarget_ = 3.748e+06

keff_ previous = 1.29478

keff_ = 1.2948


Writing output files

ExecutionTime = 0.18 s  ClockTime = 0 s

deltaT = 4.82584e-26
Time = 2e-06

Coupling iteration 0
diagonal:  Solving for prec0, Initial residual = 0, Final residual = 0, No Iterations 0
diagonal:  Solving for prec1, Initial residual = 0, Final residual = 0, No Iterations 0
diagonal:  Solving for prec2, Initial residual = 0, Final residual = 0, No Iterations 0
diagonal:  Solving for prec3, Initial residual = 0, Final residual = 0, No Iterations 0
diagonal:  Solving for prec4, Initial residual = 0, Final residual = 0, No Iterations 0
diagonal:  Solving for prec5, Initial residual = 0, Final residual = 0, No Iterations 0
Neutron iteration no:  0

DICPCG:  Solving for fluxStar0, Initial residual = 1.29779e-05, Final residual = 9.88437e-07, No Iterations 11
neutro Residual = 1.29779e-05

DICPCG:  Solving for fluxStar0, Initial residual = 9.88427e-07, Final residual = 9.88427e-07, No Iterations 0
DICPCG:  Solving for fluxStar20, Initial residual = 3.67864e-05, Final residual = 2.04924e-07, No Iterations 3
DICPCG:  Solving for fluxStar20, Initial residual = 2.04923e-07, Final residual = 2.04923e-07, No Iterations 0
DICPCG:  Solving for fluxStar1, Initial residual = 1.9562e-05, Final residual = 4.3212e-07, No Iterations 4
neutro Residual = 1.9562e-05

DICPCG:  Solving for fluxStar1, Initial residual = 4.32112e-07, Final residual = 4.32112e-07, No Iterations 0
DICPCG:  Solving for fluxStar21, Initial residual = 1.16233e-05, Final residual = 5.61208e-07, No Iterations 1
DICPCG:  Solving for fluxStar21, Initial residual = 5.61206e-07, Final residual = 5.61206e-07, No Iterations 0
diagonal:  Solving for prec0, Initial residual = 0, Final residual = 0, No Iterations 0
diagonal:  Solving for prec1, Initial residual = 0, Final residual = 0, No Iterations 0
diagonal:  Solving for prec2, Initial residual = 0, Final residual = 0, No Iterations 0
diagonal:  Solving for prec3, Initial residual = 0, Final residual = 0, No Iterations 0
diagonal:  Solving for prec4, Initial residual = 0, Final residual = 0, No Iterations 0
diagonal:  Solving for prec5, Initial residual = 0, Final residual = 0, No Iterations 0
neutroResidual (couplingIter: 0,neutroIter: 1): 3.67864e-05 after Aitken no: 0
Final neutroResidual at coupling/neutroIter iter no 0/1: 3.67864e-05 - pow:3.74803e+06
pTarget_ = 3.748e+06

keff_ previous = 1.2948

keff_ = 1.29481


Writing output files

ExecutionTime = 0.18 s  ClockTime = 0 s

deltaT = 5.79101e-26
Time = 2e-06

Coupling iteration 0
diagonal:  Solving for prec0, Initial residual = 0, Final residual = 0, No Iterations 0
diagonal:  Solving for prec1, Initial residual = 0, Final residual = 0, No Iterations 0
diagonal:  Solving for prec2, Initial residual = 0, Final residual = 0, No Iterations 0
diagonal:  Solving for prec3, Initial residual = 0, Final residual = 0, No Iterations 0
diagonal:  Solving for prec4, Initial residual = 0, Final residual = 0, No Iterations 0
diagonal:  Solving for prec5, Initial residual = 0, Final residual = 0, No Iterations 0
Neutron iteration no:  0

DICPCG:  Solving for fluxStar0, Initial residual = 7.2116e-06, Final residual = 8.90166e-07, No Iterations 12
neutro Residual = 7.2116e-06

DICPCG:  Solving for fluxStar0, Initial residual = 8.90161e-07, Final residual = 8.90161e-07, No Iterations 0
DICPCG:  Solving for fluxStar20, Initial residual = 2.05425e-05, Final residual = 1.15988e-07, No Iterations 3
DICPCG:  Solving for fluxStar20, Initial residual = 1.15988e-07, Final residual = 1.15988e-07, No Iterations 0
DICPCG:  Solving for fluxStar1, Initial residual = 1.08789e-05, Final residual = 9.21578e-07, No Iterations 3
neutro Residual = 1.08789e-05

DICPCG:  Solving for fluxStar1, Initial residual = 9.21568e-07, Final residual = 9.21568e-07, No Iterations 0
DICPCG:  Solving for fluxStar21, Initial residual = 6.44162e-06, Final residual = 3.18523e-07, No Iterations 1
DICPCG:  Solving for fluxStar21, Initial residual = 3.18522e-07, Final residual = 3.18522e-07, No Iterations 0
diagonal:  Solving for prec0, Initial residual = 0, Final residual = 0, No Iterations 0
diagonal:  Solving for prec1, Initial residual = 0, Final residual = 0, No Iterations 0
diagonal:  Solving for prec2, Initial residual = 0, Final residual = 0, No Iterations 0
diagonal:  Solving for prec3, Initial residual = 0, Final residual = 0, No Iterations 0
diagonal:  Solving for prec4, Initial residual = 0, Final residual = 0, No Iterations 0
diagonal:  Solving for prec5, Initial residual = 0, Final residual = 0, No Iterations 0
neutroResidual (couplingIter: 0,neutroIter: 1): 2.05425e-05 after Aitken no: 0
Final neutroResidual at coupling/neutroIter iter no 0/1: 2.05425e-05 - pow:3.74802e+06
pTarget_ = 3.748e+06

keff_ previous = 1.29481

keff_ = 1.29482


Writing output files

ExecutionTime = 0.18 s  ClockTime = 0 s

deltaT = 6.94921e-26
Time = 2e-06

Coupling iteration 0
diagonal:  Solving for prec0, Initial residual = 0, Final residual = 0, No Iterations 0
diagonal:  Solving for prec1, Initial residual = 0, Final residual = 0, No Iterations 0
diagonal:  Solving for prec2, Initial residual = 0, Final residual = 0, No Iterations 0
diagonal:  Solving for prec3, Initial residual = 0, Final residual = 0, No Iterations 0
diagonal:  Solving for prec4, Initial residual = 0, Final residual = 0, No Iterations 0
diagonal:  Solving for prec5, Initial residual = 0, Final residual = 0, No Iterations 0
Neutron iteration no:  0

DICPCG:  Solving for fluxStar0, Initial residual = 4.06808e-06, Final residual = 6.27724e-07, No Iterations 9
neutro Residual = 4.06808e-06

DICPCG:  Solving for fluxStar0, Initial residual = 6.27722e-07, Final residual = 6.27722e-07, No Iterations 0
DICPCG:  Solving for fluxStar20, Initial residual = 1.1275e-05, Final residual = 6.68099e-07, No Iterations 2
DICPCG:  Solving for fluxStar20, Initial residual = 6.68098e-07, Final residual = 6.68098e-07, No Iterations 0
DICPCG:  Solving for fluxStar1, Initial residual = 5.97411e-06, Final residual = 2.33343e-07, No Iterations 3
neutro Residual = 5.97411e-06

DICPCG:  Solving for fluxStar1, Initial residual = 2.33341e-07, Final residual = 2.33341e-07, No Iterations 0
DICPCG:  Solving for fluxStar21, Initial residual = 3.54563e-06, Final residual = 1.88577e-07, No Iterations 1
DICPCG:  Solving for fluxStar21, Initial residual = 1.88577e-07, Final residual = 1.88577e-07, No Iterations 0
diagonal:  Solving for prec0, Initial residual = 0, Final residual = 0, No Iterations 0
diagonal:  Solving for prec1, Initial residual = 0, Final residual = 0, No Iterations 0
diagonal:  Solving for prec2, Initial residual = 0, Final residual = 0, No Iterations 0
diagonal:  Solving for prec3, Initial residual = 0, Final residual = 0, No Iterations 0
diagonal:  Solving for prec4, Initial residual = 0, Final residual = 0, No Iterations 0
diagonal:  Solving for prec5, Initial residual = 0, Final residual = 0, No Iterations 0
neutroResidual (couplingIter: 0,neutroIter: 1): 1.1275e-05 after Aitken no: 0
Final neutroResidual at coupling/neutroIter iter no 0/1: 1.1275e-05 - pow:3.74801e+06
pTarget_ = 3.748e+06

keff_ previous = 1.29482

keff_ = 1.29482


Writing output files

ExecutionTime = 0.18 s  ClockTime = 0 s

deltaT = 8.33906e-26
Time = 2e-06

Coupling iteration 0
diagonal:  Solving for prec0, Initial residual = 0, Final residual = 0, No Iterations 0
diagonal:  Solving for prec1, Initial residual = 0, Final residual = 0, No Iterations 0
diagonal:  Solving for prec2, Initial residual = 0, Final residual = 0, No Iterations 0
diagonal:  Solving for prec3, Initial residual = 0, Final residual = 0, No Iterations 0
diagonal:  Solving for prec4, Initial residual = 0, Final residual = 0, No Iterations 0
diagonal:  Solving for prec5, Initial residual = 0, Final residual = 0, No Iterations 0
Neutron iteration no:  0

DICPCG:  Solving for fluxStar0, Initial residual = 2.30426e-06, Final residual = 5.98916e-07, No Iterations 8
neutro Residual = 2.30426e-06

DICPCG:  Solving for fluxStar0, Initial residual = 5.98915e-07, Final residual = 5.98915e-07, No Iterations 0
DICPCG:  Solving for fluxStar20, Initial residual = 6.26962e-06, Final residual = 4.14723e-07, No Iterations 2
DICPCG:  Solving for fluxStar20, Initial residual = 4.14722e-07, Final residual = 4.14722e-07, No Iterations 0
DICPCG:  Solving for fluxStar1, Initial residual = 3.34637e-06, Final residual = 9.22347e-07, No Iterations 2
neutro Residual = 3.34637e-06

DICPCG:  Solving for fluxStar1, Initial residual = 9.22344e-07, Final residual = 9.22344e-07, No Iterations 0
DICPCG:  Solving for fluxStar21, Initial residual = 1.9235e-06, Final residual = 9.49574e-08, No Iterations 1
DICPCG:  Solving for fluxStar21, Initial residual = 9.49574e-08, Final residual = 9.49574e-08, No Iterations 0
diagonal:  Solving for prec0, Initial residual = 0, Final residual = 0, No Iterations 0
diagonal:  Solving for prec1, Initial residual = 0, Final residual = 0, No Iterations 0
diagonal:  Solving for prec2, Initial residual = 0, Final residual = 0, No Iterations 0
diagonal:  Solving for prec3, Initial residual = 0, Final residual = 0, No Iterations 0
diagonal:  Solving for prec4, Initial residual = 0, Final residual = 0, No Iterations 0
diagonal:  Solving for prec5, Initial residual = 0, Final residual = 0, No Iterations 0
neutroResidual (couplingIter: 0,neutroIter: 1): 6.26962e-06 after Aitken no: 0
Final neutroResidual at coupling/neutroIter iter no 0/1: 6.26962e-06 - pow:3.748e+06
pTarget_ = 3.748e+06

keff_ previous = 1.29482

keff_ = 1.29482


Writing output files

ExecutionTime = 0.18 s  ClockTime = 0 s

deltaT = 1.00069e-25
Time = 2e-06

Coupling iteration 0
diagonal:  Solving for prec0, Initial residual = 0, Final residual = 0, No Iterations 0
diagonal:  Solving for prec1, Initial residual = 0, Final residual = 0, No Iterations 0
diagonal:  Solving for prec2, Initial residual = 0, Final residual = 0, No Iterations 0
diagonal:  Solving for prec3, Initial residual = 0, Final residual = 0, No Iterations 0
diagonal:  Solving for prec4, Initial residual = 0, Final residual = 0, No Iterations 0
diagonal:  Solving for prec5, Initial residual = 0, Final residual = 0, No Iterations 0
Neutron iteration no:  0

DICPCG:  Solving for fluxStar0, Initial residual = 1.33866e-06, Final residual = 9.5424e-07, No Iterations 5
neutro Residual = 1.33866e-06

DICPCG:  Solving for fluxStar0, Initial residual = 9.5424e-07, Final residual = 9.5424e-07, No Iterations 0
DICPCG:  Solving for fluxStar20, Initial residual = 3.56208e-06, Final residual = 2.37237e-07, No Iterations 2
DICPCG:  Solving for fluxStar20, Initial residual = 2.37237e-07, Final residual = 2.37237e-07, No Iterations 0
DICPCG:  Solving for fluxStar1, Initial residual = 1.92661e-06, Final residual = 1.24386e-07, No Iterations 3
neutro Residual = 1.92661e-06

DICPCG:  Solving for fluxStar1, Initial residual = 1.24385e-07, Final residual = 1.24385e-07, No Iterations 0
DICPCG:  Solving for fluxStar21, Initial residual = 1.16931e-06, Final residual = 6.47223e-08, No Iterations 1
DICPCG:  Solving for fluxStar21, Initial residual = 6.47223e-08, Final residual = 6.47223e-08, No Iterations 0
diagonal:  Solving for prec0, Initial residual = 0, Final residual = 0, No Iterations 0
diagonal:  Solving for prec1, Initial residual = 0, Final residual = 0, No Iterations 0
diagonal:  Solving for prec2, Initial residual = 0, Final residual = 0, No Iterations 0
diagonal:  Solving for prec3, Initial residual = 0, Final residual = 0, No Iterations 0
diagonal:  Solving for prec4, Initial residual = 0, Final residual = 0, No Iterations 0
diagonal:  Solving for prec5, Initial residual = 0, Final residual = 0, No Iterations 0
neutroResidual (couplingIter: 0,neutroIter: 1): 3.56208e-06 after Aitken no: 0
Final neutroResidual at coupling/neutroIter iter no 0/1: 3.56208e-06 - pow:3.748e+06
pTarget_ = 3.748e+06

keff_ previous = 1.29482

keff_ = 1.29482


Writing output files

ExecutionTime = 0.18 s  ClockTime = 0 s

deltaT = 1.20082e-25
Time = 2e-06

Coupling iteration 0
diagonal:  Solving for prec0, Initial residual = 0, Final residual = 0, No Iterations 0
diagonal:  Solving for prec1, Initial residual = 0, Final residual = 0, No Iterations 0
diagonal:  Solving for prec2, Initial residual = 0, Final residual = 0, No Iterations 0
diagonal:  Solving for prec3, Initial residual = 0, Final residual = 0, No Iterations 0
diagonal:  Solving for prec4, Initial residual = 0, Final residual = 0, No Iterations 0
diagonal:  Solving for prec5, Initial residual = 0, Final residual = 0, No Iterations 0
Neutron iteration no:  0

DICPCG:  Solving for fluxStar0, Initial residual = 9.30002e-07, Final residual = 9.30002e-07, No Iterations 0
neutro Residual = 9.30002e-07

DICPCG:  Solving for fluxStar0, Initial residual = 9.30002e-07, Final residual = 9.30002e-07, No Iterations 0
DICPCG:  Solving for fluxStar20, Initial residual = 3.4147e-06, Final residual = 2.16002e-07, No Iterations 2
DICPCG:  Solving for fluxStar20, Initial residual = 2.16002e-07, Final residual = 2.16002e-07, No Iterations 0
DICPCG:  Solving for fluxStar1, Initial residual = 2.36267e-07, Final residual = 2.36267e-07, No Iterations 0
neutro Residual = 2.36267e-07

DICPCG:  Solving for fluxStar1, Initial residual = 2.36267e-07, Final residual = 2.36267e-07, No Iterations 0
DICPCG:  Solving for fluxStar21, Initial residual = 2.01528e-07, Final residual = 2.01528e-07, No Iterations 0
DICPCG:  Solving for fluxStar21, Initial residual = 2.01528e-07, Final residual = 2.01528e-07, No Iterations 0
diagonal:  Solving for prec0, Initial residual = 0, Final residual = 0, No Iterations 0
diagonal:  Solving for prec1, Initial residual = 0, Final residual = 0, No Iterations 0
diagonal:  Solving for prec2, Initial residual = 0, Final residual = 0, No Iterations 0
diagonal:  Solving for prec3, Initial residual = 0, Final residual = 0, No Iterations 0
diagonal:  Solving for prec4, Initial residual = 0, Final residual = 0, No Iterations 0
diagonal:  Solving for prec5, Initial residual = 0, Final residual = 0, No Iterations 0
neutroResidual (couplingIter: 0,neutroIter: 1): 3.4147e-06 after Aitken no: 0
Final neutroResidual at coupling/neutroIter iter no 0/1: 3.4147e-06 - pow:3.748e+06
pTarget_ = 3.748e+06

keff_ previous = 1.29482

keff_ = 1.29482


Writing output files

ExecutionTime = 0.18 s  ClockTime = 0 s

deltaT = 1.44099e-25
Time = 2e-06

Coupling iteration 0
diagonal:  Solving for prec0, Initial residual = 0, Final residual = 0, No Iterations 0
diagonal:  Solving for prec1, Initial residual = 0, Final residual = 0, No Iterations 0
diagonal:  Solving for prec2, Initial residual = 0, Final residual = 0, No Iterations 0
diagonal:  Solving for prec3, Initial residual = 0, Final residual = 0, No Iterations 0
diagonal:  Solving for prec4, Initial residual = 0, Final residual = 0, No Iterations 0
diagonal:  Solving for prec5, Initial residual = 0, Final residual = 0, No Iterations 0
Neutron iteration no:  0

DICPCG:  Solving for fluxStar0, Initial residual = 9.28541e-07, Final residual = 9.28541e-07, No Iterations 0
neutro Residual = 9.28541e-07

DICPCG:  Solving for fluxStar0, Initial residual = 9.28541e-07, Final residual = 9.28541e-07, No Iterations 0
DICPCG:  Solving for fluxStar20, Initial residual = 2.68631e-07, Final residual = 2.68631e-07, No Iterations 0
DICPCG:  Solving for fluxStar20, Initial residual = 2.68631e-07, Final residual = 2.68631e-07, No Iterations 0
DICPCG:  Solving for fluxStar1, Initial residual = 2.36267e-07, Final residual = 2.36267e-07, No Iterations 0
neutro Residual = 2.36267e-07

DICPCG:  Solving for fluxStar1, Initial residual = 2.36267e-07, Final residual = 2.36267e-07, No Iterations 0
DICPCG:  Solving for fluxStar21, Initial residual = 2.01528e-07, Final residual = 2.01528e-07, No Iterations 0
DICPCG:  Solving for fluxStar21, Initial residual = 2.01528e-07, Final residual = 2.01528e-07, No Iterations 0
diagonal:  Solving for prec0, Initial residual = 0, Final residual = 0, No Iterations 0
diagonal:  Solving for prec1, Initial residual = 0, Final residual = 0, No Iterations 0
diagonal:  Solving for prec2, Initial residual = 0, Final residual = 0, No Iterations 0
diagonal:  Solving for prec3, Initial residual = 0, Final residual = 0, No Iterations 0
diagonal:  Solving for prec4, Initial residual = 0, Final residual = 0, No Iterations 0
diagonal:  Solving for prec5, Initial residual = 0, Final residual = 0, No Iterations 0
neutroResidual (couplingIter: 0,neutroIter: 1): 9.28541e-07 after Aitken no: 0
Final neutroResidual at coupling/neutroIter iter no 0/1: 9.28541e-07 - pow:3.748e+06
pTarget_ = 3.748e+06

keff_ previous = 1.29482

keff_ = 1.29482


Writing output files

ExecutionTime = 0.18 s  ClockTime = 0 s

deltaT = 1.72919e-25
Time = 2e-06

Coupling iteration 0
diagonal:  Solving for prec0, Initial residual = 0, Final residual = 0, No Iterations 0
diagonal:  Solving for prec1, Initial residual = 0, Final residual = 0, No Iterations 0
diagonal:  Solving for prec2, Initial residual = 0, Final residual = 0, No Iterations 0
diagonal:  Solving for prec3, Initial residual = 0, Final residual = 0, No Iterations 0
diagonal:  Solving for prec4, Initial residual = 0, Final residual = 0, No Iterations 0
diagonal:  Solving for prec5, Initial residual = 0, Final residual = 0, No Iterations 0
Neutron iteration no:  0

DICPCG:  Solving for fluxStar0, Initial residual = 9.28541e-07, Final residual = 9.28541e-07, No Iterations 0
neutro Residual = 9.28541e-07

DICPCG:  Solving for fluxStar0, Initial residual = 9.28541e-07, Final residual = 9.28541e-07, No Iterations 0
DICPCG:  Solving for fluxStar20, Initial residual = 2.68631e-07, Final residual = 2.68631e-07, No Iterations 0
DICPCG:  Solving for fluxStar20, Initial residual = 2.68631e-07, Final residual = 2.68631e-07, No Iterations 0
DICPCG:  Solving for fluxStar1, Initial residual = 2.36267e-07, Final residual = 2.36267e-07, No Iterations 0
neutro Residual = 2.36267e-07

DICPCG:  Solving for fluxStar1, Initial residual = 2.36267e-07, Final residual = 2.36267e-07, No Iterations 0
DICPCG:  Solving for fluxStar21, Initial residual = 2.01528e-07, Final residual = 2.01528e-07, No Iterations 0
DICPCG:  Solving for fluxStar21, Initial residual = 2.01528e-07, Final residual = 2.01528e-07, No Iterations 0
diagonal:  Solving for prec0, Initial residual = 0, Final residual = 0, No Iterations 0
diagonal:  Solving for prec1, Initial residual = 0, Final residual = 0, No Iterations 0
diagonal:  Solving for prec2, Initial residual = 0, Final residual = 0, No Iterations 0
diagonal:  Solving for prec3, Initial residual = 0, Final residual = 0, No Iterations 0
diagonal:  Solving for prec4, Initial residual = 0, Final residual = 0, No Iterations 0
diagonal:  Solving for prec5, Initial residual = 0, Final residual = 0, No Iterations 0
neutroResidual (couplingIter: 0,neutroIter: 1): 9.28541e-07 after Aitken no: 0
Final neutroResidual at coupling/neutroIter iter no 0/1: 9.28541e-07 - pow:3.748e+06
pTarget_ = 3.748e+06

keff_ previous = 1.29482

keff_ = 1.29482


Writing output files

ExecutionTime = 0.19 s  ClockTime = 0 s

deltaT = 2.07502e-25
Time = 2e-06

Coupling iteration 0
diagonal:  Solving for prec0, Initial residual = 0, Final residual = 0, No Iterations 0
diagonal:  Solving for prec1, Initial residual = 0, Final residual = 0, No Iterations 0
diagonal:  Solving for prec2, Initial residual = 0, Final residual = 0, No Iterations 0
diagonal:  Solving for prec3, Initial residual = 0, Final residual = 0, No Iterations 0
diagonal:  Solving for prec4, Initial residual = 0, Final residual = 0, No Iterations 0
diagonal:  Solving for prec5, Initial residual = 0, Final residual = 0, No Iterations 0
Neutron iteration no:  0

DICPCG:  Solving for fluxStar0, Initial residual = 9.28541e-07, Final residual = 9.28541e-07, No Iterations 0
neutro Residual = 9.28541e-07

DICPCG:  Solving for fluxStar0, Initial residual = 9.28541e-07, Final residual = 9.28541e-07, No Iterations 0
DICPCG:  Solving for fluxStar20, Initial residual = 2.68631e-07, Final residual = 2.68631e-07, No Iterations 0
DICPCG:  Solving for fluxStar20, Initial residual = 2.68631e-07, Final residual = 2.68631e-07, No Iterations 0
DICPCG:  Solving for fluxStar1, Initial residual = 2.36267e-07, Final residual = 2.36267e-07, No Iterations 0
neutro Residual = 2.36267e-07

DICPCG:  Solving for fluxStar1, Initial residual = 2.36267e-07, Final residual = 2.36267e-07, No Iterations 0
DICPCG:  Solving for fluxStar21, Initial residual = 2.01528e-07, Final residual = 2.01528e-07, No Iterations 0
DICPCG:  Solving for fluxStar21, Initial residual = 2.01528e-07, Final residual = 2.01528e-07, No Iterations 0
diagonal:  Solving for prec0, Initial residual = 0, Final residual = 0, No Iterations 0
diagonal:  Solving for prec1, Initial residual = 0, Final residual = 0, No Iterations 0
diagonal:  Solving for prec2, Initial residual = 0, Final residual = 0, No Iterations 0
diagonal:  Solving for prec3, Initial residual = 0, Final residual = 0, No Iterations 0
diagonal:  Solving for prec4, Initial residual = 0, Final residual = 0, No Iterations 0
diagonal:  Solving for prec5, Initial residual = 0, Final residual = 0, No Iterations 0
neutroResidual (couplingIter: 0,neutroIter: 1): 9.28541e-07 after Aitken no: 0
Final neutroResidual at coupling/neutroIter iter no 0/1: 9.28541e-07 - pow:3.748e+06
pTarget_ = 3.748e+06

keff_ previous = 1.29482

keff_ = 1.29482


Writing output files

ExecutionTime = 0.19 s  ClockTime = 0 s

deltaT = 2.49003e-25
Time = 2e-06

Coupling iteration 0
diagonal:  Solving for prec0, Initial residual = 0, Final residual = 0, No Iterations 0
diagonal:  Solving for prec1, Initial residual = 0, Final residual = 0, No Iterations 0
diagonal:  Solving for prec2, Initial residual = 0, Final residual = 0, No Iterations 0
diagonal:  Solving for prec3, Initial residual = 0, Final residual = 0, No Iterations 0
diagonal:  Solving for prec4, Initial residual = 0, Final residual = 0, No Iterations 0
diagonal:  Solving for prec5, Initial residual = 0, Final residual = 0, No Iterations 0
Neutron iteration no:  0

DICPCG:  Solving for fluxStar0, Initial residual = 9.28541e-07, Final residual = 9.28541e-07, No Iterations 0
neutro Residual = 9.28541e-07

DICPCG:  Solving for fluxStar0, Initial residual = 9.28541e-07, Final residual = 9.28541e-07, No Iterations 0
DICPCG:  Solving for fluxStar20, Initial residual = 2.68631e-07, Final residual = 2.68631e-07, No Iterations 0
DICPCG:  Solving for fluxStar20, Initial residual = 2.68631e-07, Final residual = 2.68631e-07, No Iterations 0
DICPCG:  Solving for fluxStar1, Initial residual = 2.36267e-07, Final residual = 2.36267e-07, No Iterations 0
neutro Residual = 2.36267e-07

DICPCG:  Solving for fluxStar1, Initial residual = 2.36267e-07, Final residual = 2.36267e-07, No Iterations 0
DICPCG:  Solving for fluxStar21, Initial residual = 2.01528e-07, Final residual = 2.01528e-07, No Iterations 0
DICPCG:  Solving for fluxStar21, Initial residual = 2.01528e-07, Final residual = 2.01528e-07, No Iterations 0
diagonal:  Solving for prec0, Initial residual = 0, Final residual = 0, No Iterations 0
diagonal:  Solving for prec1, Initial residual = 0, Final residual = 0, No Iterations 0
diagonal:  Solving for prec2, Initial residual = 0, Final residual = 0, No Iterations 0
diagonal:  Solving for prec3, Initial residual = 0, Final residual = 0, No Iterations 0
diagonal:  Solving for prec4, Initial residual = 0, Final residual = 0, No Iterations 0
diagonal:  Solving for prec5, Initial residual = 0, Final residual = 0, No Iterations 0
neutroResidual (couplingIter: 0,neutroIter: 1): 9.28541e-07 after Aitken no: 0
Final neutroResidual at coupling/neutroIter iter no 0/1: 9.28541e-07 - pow:3.748e+06
pTarget_ = 3.748e+06

keff_ previous = 1.29482

keff_ = 1.29482


Writing output files

ExecutionTime = 0.19 s  ClockTime = 0 s

deltaT = 2.98804e-25
Time = 2e-06

Coupling iteration 0
diagonal:  Solving for prec0, Initial residual = 0, Final residual = 0, No Iterations 0
diagonal:  Solving for prec1, Initial residual = 0, Final residual = 0, No Iterations 0
diagonal:  Solving for prec2, Initial residual = 0, Final residual = 0, No Iterations 0
diagonal:  Solving for prec3, Initial residual = 0, Final residual = 0, No Iterations 0
diagonal:  Solving for prec4, Initial residual = 0, Final residual = 0, No Iterations 0
diagonal:  Solving for prec5, Initial residual = 0, Final residual = 0, No Iterations 0
Neutron iteration no:  0

DICPCG:  Solving for fluxStar0, Initial residual = 9.28541e-07, Final residual = 9.28541e-07, No Iterations 0
neutro Residual = 9.28541e-07

DICPCG:  Solving for fluxStar0, Initial residual = 9.28541e-07, Final residual = 9.28541e-07, No Iterations 0
DICPCG:  Solving for fluxStar20, Initial residual = 2.68631e-07, Final residual = 2.68631e-07, No Iterations 0
DICPCG:  Solving for fluxStar20, Initial residual = 2.68631e-07, Final residual = 2.68631e-07, No Iterations 0
DICPCG:  Solving for fluxStar1, Initial residual = 2.36267e-07, Final residual = 2.36267e-07, No Iterations 0
neutro Residual = 2.36267e-07

DICPCG:  Solving for fluxStar1, Initial residual = 2.36267e-07, Final residual = 2.36267e-07, No Iterations 0
DICPCG:  Solving for fluxStar21, Initial residual = 2.01528e-07, Final residual = 2.01528e-07, No Iterations 0
DICPCG:  Solving for fluxStar21, Initial residual = 2.01528e-07, Final residual = 2.01528e-07, No Iterations 0
diagonal:  Solving for prec0, Initial residual = 0, Final residual = 0, No Iterations 0
diagonal:  Solving for prec1, Initial residual = 0, Final residual = 0, No Iterations 0
diagonal:  Solving for prec2, Initial residual = 0, Final residual = 0, No Iterations 0
diagonal:  Solving for prec3, Initial residual = 0, Final residual = 0, No Iterations 0
diagonal:  Solving for prec4, Initial residual = 0, Final residual = 0, No Iterations 0
diagonal:  Solving for prec5, Initial residual = 0, Final residual = 0, No Iterations 0
neutroResidual (couplingIter: 0,neutroIter: 1): 9.28541e-07 after Aitken no: 0
Final neutroResidual at coupling/neutroIter iter no 0/1: 9.28541e-07 - pow:3.748e+06
pTarget_ = 3.748e+06

keff_ previous = 1.29482

keff_ = 1.29482


Writing output files

ExecutionTime = 0.19 s  ClockTime = 0 s

deltaT = 3.58564e-25
Time = 2e-06

Coupling iteration 0
diagonal:  Solving for prec0, Initial residual = 0, Final residual = 0, No Iterations 0
diagonal:  Solving for prec1, Initial residual = 0, Final residual = 0, No Iterations 0
diagonal:  Solving for prec2, Initial residual = 0, Final residual = 0, No Iterations 0
diagonal:  Solving for prec3, Initial residual = 0, Final residual = 0, No Iterations 0
diagonal:  Solving for prec4, Initial residual = 0, Final residual = 0, No Iterations 0
diagonal:  Solving for prec5, Initial residual = 0, Final residual = 0, No Iterations 0
Neutron iteration no:  0

DICPCG:  Solving for fluxStar0, Initial residual = 9.28541e-07, Final residual = 9.28541e-07, No Iterations 0
neutro Residual = 9.28541e-07

DICPCG:  Solving for fluxStar0, Initial residual = 9.28541e-07, Final residual = 9.28541e-07, No Iterations 0
DICPCG:  Solving for fluxStar20, Initial residual = 2.68631e-07, Final residual = 2.68631e-07, No Iterations 0
DICPCG:  Solving for fluxStar20, Initial residual = 2.68631e-07, Final residual = 2.68631e-07, No Iterations 0
DICPCG:  Solving for fluxStar1, Initial residual = 2.36267e-07, Final residual = 2.36267e-07, No Iterations 0
neutro Residual = 2.36267e-07

DICPCG:  Solving for fluxStar1, Initial residual = 2.36267e-07, Final residual = 2.36267e-07, No Iterations 0
DICPCG:  Solving for fluxStar21, Initial residual = 2.01528e-07, Final residual = 2.01528e-07, No Iterations 0
DICPCG:  Solving for fluxStar21, Initial residual = 2.01528e-07, Final residual = 2.01528e-07, No Iterations 0
diagonal:  Solving for prec0, Initial residual = 0, Final residual = 0, No Iterations 0
diagonal:  Solving for prec1, Initial residual = 0, Final residual = 0, No Iterations 0
diagonal:  Solving for prec2, Initial residual = 0, Final residual = 0, No Iterations 0
diagonal:  Solving for prec3, Initial residual = 0, Final residual = 0, No Iterations 0
diagonal:  Solving for prec4, Initial residual = 0, Final residual = 0, No Iterations 0
diagonal:  Solving for prec5, Initial residual = 0, Final residual = 0, No Iterations 0
neutroResidual (couplingIter: 0,neutroIter: 1): 9.28541e-07 after Aitken no: 0
Final neutroResidual at coupling/neutroIter iter no 0/1: 9.28541e-07 - pow:3.748e+06
pTarget_ = 3.748e+06

keff_ previous = 1.29482

keff_ = 1.29482


Writing output files

ExecutionTime = 0.19 s  ClockTime = 0 s

deltaT = 4.30277e-25
Time = 2e-06

Coupling iteration 0
diagonal:  Solving for prec0, Initial residual = 0, Final residual = 0, No Iterations 0
diagonal:  Solving for prec1, Initial residual = 0, Final residual = 0, No Iterations 0
diagonal:  Solving for prec2, Initial residual = 0, Final residual = 0, No Iterations 0
diagonal:  Solving for prec3, Initial residual = 0, Final residual = 0, No Iterations 0
diagonal:  Solving for prec4, Initial residual = 0, Final residual = 0, No Iterations 0
diagonal:  Solving for prec5, Initial residual = 0, Final residual = 0, No Iterations 0
Neutron iteration no:  0

DICPCG:  Solving for fluxStar0, Initial residual = 9.28541e-07, Final residual = 9.28541e-07, No Iterations 0
neutro Residual = 9.28541e-07

DICPCG:  Solving for fluxStar0, Initial residual = 9.28541e-07, Final residual = 9.28541e-07, No Iterations 0
DICPCG:  Solving for fluxStar20, Initial residual = 2.68631e-07, Final residual = 2.68631e-07, No Iterations 0
DICPCG:  Solving for fluxStar20, Initial residual = 2.68631e-07, Final residual = 2.68631e-07, No Iterations 0
DICPCG:  Solving for fluxStar1, Initial residual = 2.36267e-07, Final residual = 2.36267e-07, No Iterations 0
neutro Residual = 2.36267e-07

DICPCG:  Solving for fluxStar1, Initial residual = 2.36267e-07, Final residual = 2.36267e-07, No Iterations 0
DICPCG:  Solving for fluxStar21, Initial residual = 2.01528e-07, Final residual = 2.01528e-07, No Iterations 0
DICPCG:  Solving for fluxStar21, Initial residual = 2.01528e-07, Final residual = 2.01528e-07, No Iterations 0
diagonal:  Solving for prec0, Initial residual = 0, Final residual = 0, No Iterations 0
diagonal:  Solving for prec1, Initial residual = 0, Final residual = 0, No Iterations 0
diagonal:  Solving for prec2, Initial residual = 0, Final residual = 0, No Iterations 0
diagonal:  Solving for prec3, Initial residual = 0, Final residual = 0, No Iterations 0
diagonal:  Solving for prec4, Initial residual = 0, Final residual = 0, No Iterations 0
diagonal:  Solving for prec5, Initial residual = 0, Final residual = 0, No Iterations 0
neutroResidual (couplingIter: 0,neutroIter: 1): 9.28541e-07 after Aitken no: 0
Final neutroResidual at coupling/neutroIter iter no 0/1: 9.28541e-07 - pow:3.748e+06
pTarget_ = 3.748e+06

keff_ previous = 1.29482

keff_ = 1.29482


Writing output files

ExecutionTime = 0.19 s  ClockTime = 0 s

deltaT = 5.16332e-25
Time = 2e-06

Coupling iteration 0
diagonal:  Solving for prec0, Initial residual = 0, Final residual = 0, No Iterations 0
diagonal:  Solving for prec1, Initial residual = 0, Final residual = 0, No Iterations 0
diagonal:  Solving for prec2, Initial residual = 0, Final residual = 0, No Iterations 0
diagonal:  Solving for prec3, Initial residual = 0, Final residual = 0, No Iterations 0
diagonal:  Solving for prec4, Initial residual = 0, Final residual = 0, No Iterations 0
diagonal:  Solving for prec5, Initial residual = 0, Final residual = 0, No Iterations 0
Neutron iteration no:  0

DICPCG:  Solving for fluxStar0, Initial residual = 9.28541e-07, Final residual = 9.28541e-07, No Iterations 0
neutro Residual = 9.28541e-07

DICPCG:  Solving for fluxStar0, Initial residual = 9.28541e-07, Final residual = 9.28541e-07, No Iterations 0
DICPCG:  Solving for fluxStar20, Initial residual = 2.68631e-07, Final residual = 2.68631e-07, No Iterations 0
DICPCG:  Solving for fluxStar20, Initial residual = 2.68631e-07, Final residual = 2.68631e-07, No Iterations 0
DICPCG:  Solving for fluxStar1, Initial residual = 2.36267e-07, Final residual = 2.36267e-07, No Iterations 0
neutro Residual = 2.36267e-07

DICPCG:  Solving for fluxStar1, Initial residual = 2.36267e-07, Final residual = 2.36267e-07, No Iterations 0
DICPCG:  Solving for fluxStar21, Initial residual = 2.01528e-07, Final residual = 2.01528e-07, No Iterations 0
DICPCG:  Solving for fluxStar21, Initial residual = 2.01528e-07, Final residual = 2.01528e-07, No Iterations 0
diagonal:  Solving for prec0, Initial residual = 0, Final residual = 0, No Iterations 0
diagonal:  Solving for prec1, Initial residual = 0, Final residual = 0, No Iterations 0
diagonal:  Solving for prec2, Initial residual = 0, Final residual = 0, No Iterations 0
diagonal:  Solving for prec3, Initial residual = 0, Final residual = 0, No Iterations 0
diagonal:  Solving for prec4, Initial residual = 0, Final residual = 0, No Iterations 0
diagonal:  Solving for prec5, Initial residual = 0, Final residual = 0, No Iterations 0
neutroResidual (couplingIter: 0,neutroIter: 1): 9.28541e-07 after Aitken no: 0
Final neutroResidual at coupling/neutroIter iter no 0/1: 9.28541e-07 - pow:3.748e+06
pTarget_ = 3.748e+06

keff_ previous = 1.29482

keff_ = 1.29482


Writing output files

ExecutionTime = 0.19 s  ClockTime = 0 s

deltaT = 6.19599e-25
Time = 2e-06

Coupling iteration 0
diagonal:  Solving for prec0, Initial residual = 0, Final residual = 0, No Iterations 0
diagonal:  Solving for prec1, Initial residual = 0, Final residual = 0, No Iterations 0
diagonal:  Solving for prec2, Initial residual = 0, Final residual = 0, No Iterations 0
diagonal:  Solving for prec3, Initial residual = 0, Final residual = 0, No Iterations 0
diagonal:  Solving for prec4, Initial residual = 0, Final residual = 0, No Iterations 0
diagonal:  Solving for prec5, Initial residual = 0, Final residual = 0, No Iterations 0
Neutron iteration no:  0

DICPCG:  Solving for fluxStar0, Initial residual = 9.28541e-07, Final residual = 9.28541e-07, No Iterations 0
neutro Residual = 9.28541e-07

DICPCG:  Solving for fluxStar0, Initial residual = 9.28541e-07, Final residual = 9.28541e-07, No Iterations 0
DICPCG:  Solving for fluxStar20, Initial residual = 2.68631e-07, Final residual = 2.68631e-07, No Iterations 0
DICPCG:  Solving for fluxStar20, Initial residual = 2.68631e-07, Final residual = 2.68631e-07, No Iterations 0
DICPCG:  Solving for fluxStar1, Initial residual = 2.36267e-07, Final residual = 2.36267e-07, No Iterations 0
neutro Residual = 2.36267e-07

DICPCG:  Solving for fluxStar1, Initial residual = 2.36267e-07, Final residual = 2.36267e-07, No Iterations 0
DICPCG:  Solving for fluxStar21, Initial residual = 2.01528e-07, Final residual = 2.01528e-07, No Iterations 0
DICPCG:  Solving for fluxStar21, Initial residual = 2.01528e-07, Final residual = 2.01528e-07, No Iterations 0
diagonal:  Solving for prec0, Initial residual = 0, Final residual = 0, No Iterations 0
diagonal:  Solving for prec1, Initial residual = 0, Final residual = 0, No Iterations 0
diagonal:  Solving for prec2, Initial residual = 0, Final residual = 0, No Iterations 0
diagonal:  Solving for prec3, Initial residual = 0, Final residual = 0, No Iterations 0
diagonal:  Solving for prec4, Initial residual = 0, Final residual = 0, No Iterations 0
diagonal:  Solving for prec5, Initial residual = 0, Final residual = 0, No Iterations 0
neutroResidual (couplingIter: 0,neutroIter: 1): 9.28541e-07 after Aitken no: 0
Final neutroResidual at coupling/neutroIter iter no 0/1: 9.28541e-07 - pow:3.748e+06
pTarget_ = 3.748e+06

keff_ previous = 1.29482

keff_ = 1.29482


Writing output files

ExecutionTime = 0.19 s  ClockTime = 0 s

deltaT = 7.43519e-25
Time = 2e-06

Coupling iteration 0
diagonal:  Solving for prec0, Initial residual = 0, Final residual = 0, No Iterations 0
[...]
neutroResidual (couplingIter: 0,neutroIter: 1): 9.28541e-07 after Aitken no: 0
Final neutroResidual at coupling/neutroIter iter no 0/1: 9.28541e-07 - pow:3.748e+06
pTarget_ = 3.748e+06

keff_ previous = 1.29482

keff_ = 1.29482


Writing output files

ExecutionTime = 0.56 s  ClockTime = 1 s

deltaT = 0.5
Time = 8

Coupling iteration 0
diagonal:  Solving for prec0, Initial residual = 0, Final residual = 0, No Iterations 0
diagonal:  Solving for prec1, Initial residual = 0, Final residual = 0, No Iterations 0
diagonal:  Solving for prec2, Initial residual = 0, Final residual = 0, No Iterations 0
diagonal:  Solving for prec3, Initial residual = 0, Final residual = 0, No Iterations 0
diagonal:  Solving for prec4, Initial residual = 0, Final residual = 0, No Iterations 0
diagonal:  Solving for prec5, Initial residual = 0, Final residual = 0, No Iterations 0
Neutron iteration no:  0

DICPCG:  Solving for fluxStar0, Initial residual = 9.28541e-07, Final residual = 9.28541e-07, No Iterations 0
neutro Residual = 9.28541e-07

DICPCG:  Solving for fluxStar0, Initial residual = 9.28541e-07, Final residual = 9.28541e-07, No Iterations 0
DICPCG:  Solving for fluxStar20, Initial residual = 2.68631e-07, Final residual = 2.68631e-07, No Iterations 0
DICPCG:  Solving for fluxStar20, Initial residual = 2.68631e-07, Final residual = 2.68631e-07, No Iterations 0
DICPCG:  Solving for fluxStar1, Initial residual = 2.36267e-07, Final residual = 2.36267e-07, No Iterations 0
neutro Residual = 2.36267e-07

DICPCG:  Solving for fluxStar1, Initial residual = 2.36267e-07, Final residual = 2.36267e-07, No Iterations 0
DICPCG:  Solving for fluxStar21, Initial residual = 2.01528e-07, Final residual = 2.01528e-07, No Iterations 0
DICPCG:  Solving for fluxStar21, Initial residual = 2.01528e-07, Final residual = 2.01528e-07, No Iterations 0
diagonal:  Solving for prec0, Initial residual = 0, Final residual = 0, No Iterations 0
diagonal:  Solving for prec1, Initial residual = 0, Final residual = 0, No Iterations 0
diagonal:  Solving for prec2, Initial residual = 0, Final residual = 0, No Iterations 0
diagonal:  Solving for prec3, Initial residual = 0, Final residual = 0, No Iterations 0
diagonal:  Solving for prec4, Initial residual = 0, Final residual = 0, No Iterations 0
diagonal:  Solving for prec5, Initial residual = 0, Final residual = 0, No Iterations 0
neutroResidual (couplingIter: 0,neutroIter: 1): 9.28541e-07 after Aitken no: 0
Final neutroResidual at coupling/neutroIter iter no 0/1: 9.28541e-07 - pow:3.748e+06
pTarget_ = 3.748e+06

keff_ previous = 1.29482

keff_ = 1.29482


Writing output files

ExecutionTime = 0.56 s  ClockTime = 1 s

massFlow mFlowInletCentralUnloaded write:
    patch inletCentralUnloaded massFlow = 0.0129505 kg/s over 0.000317644 m2

massFlow mFlowInletFuelElement write:
    patch inletFuelElement massFlow = 0.103874 kg/s over 0.00190587 m2

massFlow mFlowOutletCentralUnloaded write:
    patch outletCentralUnloaded massFlow = 0.0117216 kg/s over 0.000317644 m2

massFlow mFlowOutletFuelElement write:
    patch outletFuelElement massFlow = 0.0940179 kg/s over 0.00190587 m2

surfaceFieldValue vInletCentralUnloaded write:
    areaAverage(inletCentralUnloaded) of magU = 15
    areaAverage(inletCentralUnloaded) of p = 3.79201e+06
    areaAverage(inletCentralUnloaded) of T = 83.3
    areaAverage(inletCentralUnloaded) of alphaRhoPhi = -0.00647525
    areaAverage(inletCentralUnloaded) of alphaPhi = -0.000540134

surfaceFieldValue vOutletCentralUnloaded write:
    areaAverage(outletCentralUnloaded) of magU = 15
    areaAverage(outletCentralUnloaded) of p = 3.44728e+06
    areaAverage(outletCentralUnloaded) of T = 83.3
    areaAverage(outletCentralUnloaded) of alphaRhoPhi = 0.00586082
    areaAverage(outletCentralUnloaded) of alphaPhi = 0.000540134

surfaceFieldValue vInletFuelElement write:
    areaAverage(inletFuelElement) of magU = 15
    areaAverage(inletFuelElement) of p = 3.79201e+06
    areaAverage(inletFuelElement) of T = 83.3
    areaAverage(inletFuelElement) of alphaRhoPhi = -0.0086562
    areaAverage(inletFuelElement) of alphaPhi = -0.000722059

surfaceFieldValue vOutletFuelElement write:
    areaAverage(outletFuelElement) of magU = 15
    areaAverage(outletFuelElement) of p = 3.44728e+06
    areaAverage(outletFuelElement) of T = 83.3
    areaAverage(outletFuelElement) of alphaRhoPhi = 0.00783483
    areaAverage(outletFuelElement) of alphaPhi = 0.000722059

TBulk TInletCentralUnloaded write:
    patch inletCentralUnloaded TBulk = 83.3 K

TBulk TInletFuelElement write:
    patch inletFuelElement TBulk = 83.3 K

TBulk TOutletCentralUnloaded write:
    patch outletCentralUnloaded TBulk = 83.3 K

TBulk TOutletFuelElement write:
    patch outletFuelElement TBulk = 83.3 K

volFieldValue totalPowerFluid write:
--> FOAM Warning : 
    From Foam::label Foam::functionObjects::fieldValues::volFieldValue::writeAll(const scalarField&, const scalarField&)
    in file fieldValues/volFieldValue/volFieldValue.C at line 160
    Requested field powerDensity.nuclearFuelPin not found in database and not processed

volFieldValue totalPowerNeutro write:
    volIntegrate(neutroRegion) of powerDensity = 3.748e+06

volFieldValue totalPowerAhdeltaT write:
    volIntegrate(fluidRegion) of hdeltaT = 0

deltaT = 0.5
Time = 8.5

Coupling iteration 0
diagonal:  Solving for prec0, Initial residual = 0, Final residual = 0, No Iterations 0
diagonal:  Solving for prec1, Initial residual = 0, Final residual = 0, No Iterations 0
diagonal:  Solving for prec2, Initial residual = 0, Final residual = 0, No Iterations 0
diagonal:  Solving for prec3, Initial residual = 0, Final residual = 0, No Iterations 0
diagonal:  Solving for prec4, Initial residual = 0, Final residual = 0, No Iterations 0
diagonal:  Solving for prec5, Initial residual = 0, Final residual = 0, No Iterations 0
Neutron iteration no:  0

DICPCG:  Solving for fluxStar0, Initial residual = 9.28541e-07, Final residual = 9.28541e-07, No Iterations 0
neutro Residual = 9.28541e-07

DICPCG:  Solving for fluxStar0, Initial residual = 9.28541e-07, Final residual = 9.28541e-07, No Iterations 0
DICPCG:  Solving for fluxStar20, Initial residual = 2.68631e-07, Final residual = 2.68631e-07, No Iterations 0
DICPCG:  Solving for fluxStar20, Initial residual = 2.68631e-07, Final residual = 2.68631e-07, No Iterations 0
DICPCG:  Solving for fluxStar1, Initial residual = 2.36267e-07, Final residual = 2.36267e-07, No Iterations 0
neutro Residual = 2.36267e-07

DICPCG:  Solving for fluxStar1, Initial residual = 2.36267e-07, Final residual = 2.36267e-07, No Iterations 0
DICPCG:  Solving for fluxStar21, Initial residual = 2.01528e-07, Final residual = 2.01528e-07, No Iterations 0
DICPCG:  Solving for fluxStar21, Initial residual = 2.01528e-07, Final residual = 2.01528e-07, No Iterations 0
diagonal:  Solving for prec0, Initial residual = 0, Final residual = 0, No Iterations 0
diagonal:  Solving for prec1, Initial residual = 0, Final residual = 0, No Iterations 0
diagonal:  Solving for prec2, Initial residual = 0, Final residual = 0, No Iterations 0
diagonal:  Solving for prec3, Initial residual = 0, Final residual = 0, No Iterations 0
diagonal:  Solving for prec4, Initial residual = 0, Final residual = 0, No Iterations 0
diagonal:  Solving for prec5, Initial residual = 0, Final residual = 0, No Iterations 0
neutroResidual (couplingIter: 0,neutroIter: 1): 9.28541e-07 after Aitken no: 0
Final neutroResidual at coupling/neutroIter iter no 0/1: 9.28541e-07 - pow:3.748e+06
pTarget_ = 3.748e+06

keff_ previous = 1.29482

keff_ = 1.29482


Writing output files

ExecutionTime = 0.57 s  ClockTime = 1 s

deltaT = 0.5
Time = 9

Coupling iteration 0
diagonal:  Solving for prec0, Initial residual = 0, Final residual = 0, No Iterations 0
diagonal:  Solving for prec1, Initial residual = 0, Final residual = 0, No Iterations 0
diagonal:  Solving for prec2, Initial residual = 0, Final residual = 0, No Iterations 0
diagonal:  Solving for prec3, Initial residual = 0, Final residual = 0, No Iterations 0
diagonal:  Solving for prec4, Initial residual = 0, Final residual = 0, No Iterations 0
diagonal:  Solving for prec5, Initial residual = 0, Final residual = 0, No Iterations 0
Neutron iteration no:  0

DICPCG:  Solving for fluxStar0, Initial residual = 9.28541e-07, Final residual = 9.28541e-07, No Iterations 0
neutro Residual = 9.28541e-07

DICPCG:  Solving for fluxStar0, Initial residual = 9.28541e-07, Final residual = 9.28541e-07, No Iterations 0
DICPCG:  Solving for fluxStar20, Initial residual = 2.68631e-07, Final residual = 2.68631e-07, No Iterations 0
DICPCG:  Solving for fluxStar20, Initial residual = 2.68631e-07, Final residual = 2.68631e-07, No Iterations 0
DICPCG:  Solving for fluxStar1, Initial residual = 2.36267e-07, Final residual = 2.36267e-07, No Iterations 0
neutro Residual = 2.36267e-07

DICPCG:  Solving for fluxStar1, Initial residual = 2.36267e-07, Final residual = 2.36267e-07, No Iterations 0
DICPCG:  Solving for fluxStar21, Initial residual = 2.01528e-07, Final residual = 2.01528e-07, No Iterations 0
DICPCG:  Solving for fluxStar21, Initial residual = 2.01528e-07, Final residual = 2.01528e-07, No Iterations 0
diagonal:  Solving for prec0, Initial residual = 0, Final residual = 0, No Iterations 0
diagonal:  Solving for prec1, Initial residual = 0, Final residual = 0, No Iterations 0
diagonal:  Solving for prec2, Initial residual = 0, Final residual = 0, No Iterations 0
diagonal:  Solving for prec3, Initial residual = 0, Final residual = 0, No Iterations 0
diagonal:  Solving for prec4, Initial residual = 0, Final residual = 0, No Iterations 0
diagonal:  Solving for prec5, Initial residual = 0, Final residual = 0, No Iterations 0
neutroResidual (couplingIter: 0,neutroIter: 1): 9.28541e-07 after Aitken no: 0
Final neutroResidual at coupling/neutroIter iter no 0/1: 9.28541e-07 - pow:3.748e+06
pTarget_ = 3.748e+06

keff_ previous = 1.29482

keff_ = 1.29482


Writing output files

ExecutionTime = 0.57 s  ClockTime = 1 s

massFlow mFlowInletCentralUnloaded write:
    patch inletCentralUnloaded massFlow = 0.0129505 kg/s over 0.000317644 m2

massFlow mFlowInletFuelElement write:
    patch inletFuelElement massFlow = 0.103874 kg/s over 0.00190587 m2

massFlow mFlowOutletCentralUnloaded write:
    patch outletCentralUnloaded massFlow = 0.0117216 kg/s over 0.000317644 m2

massFlow mFlowOutletFuelElement write:
    patch outletFuelElement massFlow = 0.0940179 kg/s over 0.00190587 m2

surfaceFieldValue vInletCentralUnloaded write:
    areaAverage(inletCentralUnloaded) of magU = 15
    areaAverage(inletCentralUnloaded) of p = 3.79201e+06
    areaAverage(inletCentralUnloaded) of T = 83.3
    areaAverage(inletCentralUnloaded) of alphaRhoPhi = -0.00647525
    areaAverage(inletCentralUnloaded) of alphaPhi = -0.000540134

surfaceFieldValue vOutletCentralUnloaded write:
    areaAverage(outletCentralUnloaded) of magU = 15
    areaAverage(outletCentralUnloaded) of p = 3.44728e+06
    areaAverage(outletCentralUnloaded) of T = 83.3
    areaAverage(outletCentralUnloaded) of alphaRhoPhi = 0.00586082
    areaAverage(outletCentralUnloaded) of alphaPhi = 0.000540134

surfaceFieldValue vInletFuelElement write:
    areaAverage(inletFuelElement) of magU = 15
    areaAverage(inletFuelElement) of p = 3.79201e+06
    areaAverage(inletFuelElement) of T = 83.3
    areaAverage(inletFuelElement) of alphaRhoPhi = -0.0086562
    areaAverage(inletFuelElement) of alphaPhi = -0.000722059

surfaceFieldValue vOutletFuelElement write:
    areaAverage(outletFuelElement) of magU = 15
    areaAverage(outletFuelElement) of p = 3.44728e+06
    areaAverage(outletFuelElement) of T = 83.3
    areaAverage(outletFuelElement) of alphaRhoPhi = 0.00783483
    areaAverage(outletFuelElement) of alphaPhi = 0.000722059

TBulk TInletCentralUnloaded write:
    patch inletCentralUnloaded TBulk = 83.3 K

TBulk TInletFuelElement write:
    patch inletFuelElement TBulk = 83.3 K

TBulk TOutletCentralUnloaded write:
    patch outletCentralUnloaded TBulk = 83.3 K

TBulk TOutletFuelElement write:
    patch outletFuelElement TBulk = 83.3 K

volFieldValue totalPowerFluid write:
--> FOAM Warning : 
    From Foam::label Foam::functionObjects::fieldValues::volFieldValue::writeAll(const scalarField&, const scalarField&)
    in file fieldValues/volFieldValue/volFieldValue.C at line 160
    Requested field powerDensity.nuclearFuelPin not found in database and not processed

volFieldValue totalPowerNeutro write:
    volIntegrate(neutroRegion) of powerDensity = 3.748e+06

volFieldValue totalPowerAhdeltaT write:
    volIntegrate(fluidRegion) of hdeltaT = 0

deltaT = 0.5
Time = 9.5

Coupling iteration 0
diagonal:  Solving for prec0, Initial residual = 0, Final residual = 0, No Iterations 0
diagonal:  Solving for prec1, Initial residual = 0, Final residual = 0, No Iterations 0
diagonal:  Solving for prec2, Initial residual = 0, Final residual = 0, No Iterations 0
diagonal:  Solving for prec3, Initial residual = 0, Final residual = 0, No Iterations 0
diagonal:  Solving for prec4, Initial residual = 0, Final residual = 0, No Iterations 0
diagonal:  Solving for prec5, Initial residual = 0, Final residual = 0, No Iterations 0
Neutron iteration no:  0

DICPCG:  Solving for fluxStar0, Initial residual = 9.28541e-07, Final residual = 9.28541e-07, No Iterations 0
neutro Residual = 9.28541e-07

DICPCG:  Solving for fluxStar0, Initial residual = 9.28541e-07, Final residual = 9.28541e-07, No Iterations 0
DICPCG:  Solving for fluxStar20, Initial residual = 2.68631e-07, Final residual = 2.68631e-07, No Iterations 0
DICPCG:  Solving for fluxStar20, Initial residual = 2.68631e-07, Final residual = 2.68631e-07, No Iterations 0
DICPCG:  Solving for fluxStar1, Initial residual = 2.36267e-07, Final residual = 2.36267e-07, No Iterations 0
neutro Residual = 2.36267e-07

DICPCG:  Solving for fluxStar1, Initial residual = 2.36267e-07, Final residual = 2.36267e-07, No Iterations 0
DICPCG:  Solving for fluxStar21, Initial residual = 2.01528e-07, Final residual = 2.01528e-07, No Iterations 0
DICPCG:  Solving for fluxStar21, Initial residual = 2.01528e-07, Final residual = 2.01528e-07, No Iterations 0
diagonal:  Solving for prec0, Initial residual = 0, Final residual = 0, No Iterations 0
diagonal:  Solving for prec1, Initial residual = 0, Final residual = 0, No Iterations 0
diagonal:  Solving for prec2, Initial residual = 0, Final residual = 0, No Iterations 0
diagonal:  Solving for prec3, Initial residual = 0, Final residual = 0, No Iterations 0
diagonal:  Solving for prec4, Initial residual = 0, Final residual = 0, No Iterations 0
diagonal:  Solving for prec5, Initial residual = 0, Final residual = 0, No Iterations 0
neutroResidual (couplingIter: 0,neutroIter: 1): 9.28541e-07 after Aitken no: 0
Final neutroResidual at coupling/neutroIter iter no 0/1: 9.28541e-07 - pow:3.748e+06
pTarget_ = 3.748e+06

keff_ previous = 1.29482

keff_ = 1.29482


Writing output files

ExecutionTime = 0.57 s  ClockTime = 1 s

deltaT = 0.5
Time = 10

Coupling iteration 0
diagonal:  Solving for prec0, Initial residual = 0, Final residual = 0, No Iterations 0
diagonal:  Solving for prec1, Initial residual = 0, Final residual = 0, No Iterations 0
diagonal:  Solving for prec2, Initial residual = 0, Final residual = 0, No Iterations 0
diagonal:  Solving for prec3, Initial residual = 0, Final residual = 0, No Iterations 0
diagonal:  Solving for prec4, Initial residual = 0, Final residual = 0, No Iterations 0
diagonal:  Solving for prec5, Initial residual = 0, Final residual = 0, No Iterations 0
Neutron iteration no:  0

DICPCG:  Solving for fluxStar0, Initial residual = 9.28541e-07, Final residual = 9.28541e-07, No Iterations 0
neutro Residual = 9.28541e-07

DICPCG:  Solving for fluxStar0, Initial residual = 9.28541e-07, Final residual = 9.28541e-07, No Iterations 0
DICPCG:  Solving for fluxStar20, Initial residual = 2.68631e-07, Final residual = 2.68631e-07, No Iterations 0
DICPCG:  Solving for fluxStar20, Initial residual = 2.68631e-07, Final residual = 2.68631e-07, No Iterations 0
DICPCG:  Solving for fluxStar1, Initial residual = 2.36267e-07, Final residual = 2.36267e-07, No Iterations 0
neutro Residual = 2.36267e-07

DICPCG:  Solving for fluxStar1, Initial residual = 2.36267e-07, Final residual = 2.36267e-07, No Iterations 0
DICPCG:  Solving for fluxStar21, Initial residual = 2.01528e-07, Final residual = 2.01528e-07, No Iterations 0
DICPCG:  Solving for fluxStar21, Initial residual = 2.01528e-07, Final residual = 2.01528e-07, No Iterations 0
diagonal:  Solving for prec0, Initial residual = 0, Final residual = 0, No Iterations 0
diagonal:  Solving for prec1, Initial residual = 0, Final residual = 0, No Iterations 0
diagonal:  Solving for prec2, Initial residual = 0, Final residual = 0, No Iterations 0
diagonal:  Solving for prec3, Initial residual = 0, Final residual = 0, No Iterations 0
diagonal:  Solving for prec4, Initial residual = 0, Final residual = 0, No Iterations 0
diagonal:  Solving for prec5, Initial residual = 0, Final residual = 0, No Iterations 0
neutroResidual (couplingIter: 0,neutroIter: 1): 9.28541e-07 after Aitken no: 0
Final neutroResidual at coupling/neutroIter iter no 0/1: 9.28541e-07 - pow:3.748e+06
pTarget_ = 3.748e+06

keff_ previous = 1.29482

keff_ = 1.29482


Writing output files

ExecutionTime = 0.58 s  ClockTime = 1 s

massFlow mFlowInletCentralUnloaded write:
    patch inletCentralUnloaded massFlow = 0.0129505 kg/s over 0.000317644 m2

massFlow mFlowInletFuelElement write:
    patch inletFuelElement massFlow = 0.103874 kg/s over 0.00190587 m2

massFlow mFlowOutletCentralUnloaded write:
    patch outletCentralUnloaded massFlow = 0.0117216 kg/s over 0.000317644 m2

massFlow mFlowOutletFuelElement write:
    patch outletFuelElement massFlow = 0.0940179 kg/s over 0.00190587 m2

surfaceFieldValue vInletCentralUnloaded write:
    areaAverage(inletCentralUnloaded) of magU = 15
    areaAverage(inletCentralUnloaded) of p = 3.79201e+06
    areaAverage(inletCentralUnloaded) of T = 83.3
    areaAverage(inletCentralUnloaded) of alphaRhoPhi = -0.00647525
    areaAverage(inletCentralUnloaded) of alphaPhi = -0.000540134

surfaceFieldValue vOutletCentralUnloaded write:
    areaAverage(outletCentralUnloaded) of magU = 15
    areaAverage(outletCentralUnloaded) of p = 3.44728e+06
    areaAverage(outletCentralUnloaded) of T = 83.3
    areaAverage(outletCentralUnloaded) of alphaRhoPhi = 0.00586082
    areaAverage(outletCentralUnloaded) of alphaPhi = 0.000540134

surfaceFieldValue vInletFuelElement write:
    areaAverage(inletFuelElement) of magU = 15
    areaAverage(inletFuelElement) of p = 3.79201e+06
    areaAverage(inletFuelElement) of T = 83.3
    areaAverage(inletFuelElement) of alphaRhoPhi = -0.0086562
    areaAverage(inletFuelElement) of alphaPhi = -0.000722059

surfaceFieldValue vOutletFuelElement write:
    areaAverage(outletFuelElement) of magU = 15
    areaAverage(outletFuelElement) of p = 3.44728e+06
    areaAverage(outletFuelElement) of T = 83.3
    areaAverage(outletFuelElement) of alphaRhoPhi = 0.00783483
    areaAverage(outletFuelElement) of alphaPhi = 0.000722059

TBulk TInletCentralUnloaded write:
    patch inletCentralUnloaded TBulk = 83.3 K

TBulk TInletFuelElement write:
    patch inletFuelElement TBulk = 83.3 K

TBulk TOutletCentralUnloaded write:
    patch outletCentralUnloaded TBulk = 83.3 K

TBulk TOutletFuelElement write:
    patch outletFuelElement TBulk = 83.3 K

volFieldValue totalPowerFluid write:
--> FOAM Warning : 
    From Foam::label Foam::functionObjects::fieldValues::volFieldValue::writeAll(const scalarField&, const scalarField&)
    in file fieldValues/volFieldValue/volFieldValue.C at line 160
    Requested field powerDensity.nuclearFuelPin not found in database and not processed

volFieldValue totalPowerNeutro write:
    volIntegrate(neutroRegion) of powerDensity = 3.748e+06

volFieldValue totalPowerAhdeltaT write:
    volIntegrate(fluidRegion) of hdeltaT = 0

End

