/*--------------------------------*- C++ -*----------------------------------*\
|       ______          _   __           ______                               |
|      / ____/  ___    / | / /          / ____/  ____   ____ _   ____ ___     |
|     / / __   / _ \  /  |/ /  ______  / /_     / __ \ / __ `/  / __ `__ \    |
|    / /_/ /  /  __/ / /|  /  /_____/ / __/    / /_/ // /_/ /  / / / / / /    |
|    \____/   \___/ /_/ |_/          /_/       \____/ \__,_/  /_/ /_/ /_/     |
|    Copyright (C) 2015 - 2022 EPFL                                           |
\*---------------------------------------------------------------------------*/
FoamFile
{
    version     2.0;
    format      ascii;
    class       dictionary;
    object      phaseProperties;
}
// * * * * * * * * * * * * * * * * * * * * * * * * * * * * * * * * * * * * * //

// ------------------------------------------------------------------------- //
// --- THERMAL-HYDRAULIC TYPE ---------------------------------------------- //
// ------------------------------------------------------------------------- //

thermalHydraulicsType    "twoPhase";

// ------------------------------------------------------------------------- //
// --- FLUID PROPERTIES ---------------------------------------------------- //
// ------------------------------------------------------------------------- //

fluid1 "liquid";
fluid2 "vapour";

liquidProperties
{
    residualAlpha   1e-69;

    dispersedDiameterModel
    {
        type        constant;
        value       0.01;
    }
}

vapourProperties
{
    residualAlpha   1e-69;

    dispersedDiameterModel
    {
        type        constant;
        value       0.01;
    }

    initialAlpha
    {
        "mid"      0.5;
    }
}

// ------------------------------------------------------------------------- //
// --- STRUCTURES PROPERTIES ----------------------------------------------- //
// ------------------------------------------------------------------------- //

structureProperties
{    
    "low:top"
    {
        volumeFraction      0;
        Dh                  0.01;
    }

    "mid"
    {
        volumeFraction      0.1;
        Dh                  0.01;
    }
}

// ------------------------------------------------------------------------- //
// --- REGIME MAP MODELS --------------------------------------------------- //
// ------------------------------------------------------------------------- //

regimeMapModels
{
    "totallyNonPhysicalRegimeMapJustToShowYouHowToUseOne"
    {
        type                oneParameter;
        parameter           "magU.liquid";
        regimeBounds
        {
            "regime0"       (0      0.6);
            "regime1"       (1     1.5);
        }
    }
}

// ------------------------------------------------------------------------- //
// --- PHYSICS MODELS ------------------------------------------------------ //
// ------------------------------------------------------------------------- //

physicsModels
{
    dragModels
    {
        "liquid.vapour"
        {
            type        SchillerNaumann;
        }
        "liquid.structure"
        {
            "low:mid:top"
            {
                type        byRegime;
                regimeMap   "totallyNonPhysicalRegimeMapJustToShowYouHowToUseOne";
                "regime0"
                {
                    type    constant;
                    value   10000;
                }
                "regime1"
                {
                    type    constant;
                    value   30000;
                }
            }
        }
    }

    twoPhaseDragMultiplierModel
    {
        type            LottesFlinn;
        multiplierFluid liquid;
    }

    heatTransferModels
    {}

    pairGeometryModels
    {
        "liquid.vapour"
        {
            dispersionModel
            {
                type            constant;
                dispersedPhase  "vapour";
            }
            interfacialAreaDensityModel
            {
                type            constant;
                value           0;
            }
        }

        "liquid.structure"
        {
            contactPartitionModel
            {
                type            constant;
                value           1.0;
            }
        }
    }
}

// ------------------------------------------------------------------------- //
// --- MISCELLANEA --------------------------------------------------------- //
// ------------------------------------------------------------------------- //

pMin                    10000;
pRefCell                0;
pRefValue               100000;
residualKd              1;

// ************************************************************************* //
