/*--------------------------------*- C++ -*----------------------------------*\
|       ______          _   __           ______                               |
|      / ____/  ___    / | / /          / ____/  ____   ____ _   ____ ___     |
|     / / __   / _ \  /  |/ /  ______  / /_     / __ \ / __ `/  / __ `__ \    |
|    / /_/ /  /  __/ / /|  /  /_____/ / __/    / /_/ // /_/ /  / / / / / /    |
|    \____/   \___/ /_/ |_/          /_/       \____/ \__,_/  /_/ /_/ /_/     |
|    Copyright (C) 2015 - 2022 EPFL                                           |
\*---------------------------------------------------------------------------*/
FoamFile
{
    version     2.0;
    format      ascii;
    class       dictionary;
    object      phaseProperties;
}
// * * * * * * * * * * * * * * * * * * * * * * * * * * * * * * * * * * * * * //

// ------------------------------------------------------------------------- //
// --- THERMAL-HYDRAULIC TYPE ---------------------------------------------- //
// ------------------------------------------------------------------------- //

thermalHydraulicsType    "onePhase";

// ------------------------------------------------------------------------- //
// --- STRUCTURES PROPERTIES ----------------------------------------------- //
// ------------------------------------------------------------------------- //

structureProperties
{    
    type            "byZone";

    "low:mid:top"
    {
        volumeFraction      0.1;
        Dh                  0.01;
    }
}

// ------------------------------------------------------------------------- //
// --- REGIME MAP MODEL ---------------------------------------------------- //
// ------------------------------------------------------------------------- //

regimeMapModel
{
    type                none;
}

// ------------------------------------------------------------------------- //
// --- REGIME PHYSICS FOR EACH REGIME -------------------------------------- //
// ------------------------------------------------------------------------- //

physicsModels
{
    dragModels
    {
        "low:mid:top"
        {
            type        ReynoldsPower;
            coeff       0.316;
            exp         -0.25;
        }
    }

    heatTransferModels
    {}
}

// ------------------------------------------------------------------------- //
// --- MISCELLANEA --------------------------------------------------------- //
// ------------------------------------------------------------------------- //

pMin                    10000;
pRefCell                780;
pRefValue               100000;
residualKd              1;

// ************************************************************************* //
