/*--------------------------------*- C++ -*----------------------------------*\
|       ______          _   __           ______                               |
|      / ____/  ___    / | / /          / ____/  ____   ____ _   ____ ___     |
|     / / __   / _ \  /  |/ /  ______  / /_     / __ \ / __ `/  / __ `__ \    |
|    / /_/ /  /  __/ / /|  /  /_____/ / __/    / /_/ // /_/ /  / / / / / /    |
|    \____/   \___/ /_/ |_/          /_/       \____/ \__,_/  /_/ /_/ /_/     |
|    Copyright (C) 2015 - 2022 EPFL                                           |
\*---------------------------------------------------------------------------*/
FoamFile
{
    version     2.0;
    format      ascii;
    class       dictionary;
    object      phaseProperties;
}
// * * * * * * * * * * * * * * * * * * * * * * * * * * * * * * * * * * * * * //

// ------------------------------------------------------------------------- //
// --- THERMAL-HYDRAULIC TYPE ---------------------------------------------- //
// ------------------------------------------------------------------------- //

thermalHydraulicsType    "onePhase";

fluidProperties
{
    initialPowerDensity
    {
        "core"              166.85e+6;
    }
}

// ------------------------------------------------------------------------- //
// --- STRUCTURES PROPERTIES ----------------------------------------------- //
// ------------------------------------------------------------------------- //

structureProperties
{    
    "core"
    {
        volumeFraction      0;
        Dh                  1;
    }

    "hx"
    {
        volumeFraction      0.6;
        Dh                  1;//0.01;

        powerModel
        {
            type            fixedTemperatureFMU;
            temperatureNameFromFMU  temperatureCoupled;
            volumetricArea  450;
            T               850;
        }
    }

    "pump"
    {
        volumeFraction      0;
        Dh                  1;

        momentumSource     (0 0 12900);
        pumpMultiplierNameFromFMU   momentumSourceCoupled;
        pumpDirection      (0 0 1);
        momentumSourceInit   12900;
        

      /*  momentumSourceTimeProfile
        {
            type                            table;

            //- Time after which the time table is applied
            startTime                   100;

            //- Left column is time elapsed since the startTime defined
            //  above
            table       table
            (
(       0       1       )
(       1       0.818730753077982       )
(       2       0.670320046035639       )
(       3       0.548811636094026       )
(       4       0.449328964117222       )
(       5       0.367879441171442       )
(       6       0.301194211912202       )
(       7       0.246596963941606       )
(       8       0.201896517994655       )
(       9       0.165298888221587       )
(       10      0.135335283236613       )
(       1000    0.135335283236613       )

            );
        }*/

    }
}

// ------------------------------------------------------------------------- //
// --- REGIME MAP MODELS --------------------------------------------------- //
// ------------------------------------------------------------------------- //

regimeMapModels
{
}

// ------------------------------------------------------------------------- //
// --- REGIME PHYSICS FOR EACH REGIME -------------------------------------- //
// ------------------------------------------------------------------------- //

physicsModels
{
    dragModels    
    {
       "hx"
        {
           type     ReynoldsPower;
            coeff   0.5;
            exp     -0.25;
        }
    }

    heatTransferModels
    {
        "hx"
        {
            //type    constant;
            //value   2.55e+4;
            type            NusseltWallAndHfromFMU;
            HNameFromFMU    HCoupled;
            const   0.0;
            coeff   0.023;
            expRe   0.8;
            expPr   0.4;
            addH    30000;
        }
    }
}

// ------------------------------------------------------------------------- //
// --- MISCELLANEA --------------------------------------------------------- //
// ------------------------------------------------------------------------- //

pMin                    10000;
pRefCell                0;
pRefValue               100000;

// ************************************************************************* //
